# created with PyMOL 2.3.5
@<TRIPOS>MOLECULE
PGE
24 23 1                 
SMALL
USER_CHARGES
@<TRIPOS>ATOM
1	  C1	0.913	-0.458	3.484	C.3	1	PGE0	0.000	
2	  O1	0.931	0.939	3.780	O.3	1	PGE0	0.000	
3	  C2	-0.314	-0.783	2.630	C.3	1	PGE0	0.000	
4	  O2	-0.256	-0.039	1.411	O.3	1	PGE0	0.000	
5	  C3	-1.423	-0.383	0.662	C.3	1	PGE0	0.000	
6	  C4	-1.423	0.383	-0.662	C.3	1	PGE0	0.000	
7	  O4	0.931	-0.938	-3.780	O.3	1	PGE0	0.000	
8	  C6	0.912	0.459	-3.484	C.3	1	PGE0	0.000	
9	  C5	-0.314	0.783	-2.630	C.3	1	PGE0	0.000	
10	  O3	-0.256	0.039	-1.411	O.3	1	PGE0	0.000	
11	  H1	1.817	-0.726	2.937	 H	1	PGE0	0.000	
12	 H12	0.869	-1.026	4.414	 H	1	PGE0	0.000	
13	 HO1	1.718	1.100	4.318	 H	1	PGE0	0.000	
14	  H2	-0.328	-1.849	2.404	 H	1	PGE0	0.000	
15	 H22	-1.218	-0.515	3.177	 H	1	PGE0	0.000	
16	  H3	-1.423	-1.455	0.461	 H	1	PGE0	0.000	
17	 H32	-2.313	-0.121	1.233	 H	1	PGE0	0.000	
18	  H4	-2.313	0.120	-1.233	 H	1	PGE0	0.000	
19	 H42	-1.423	1.454	-0.461	 H	1	PGE0	0.000	
20	 HO4	1.718	-1.099	-4.318	 H	1	PGE0	0.000	
21	  H6	0.868	1.026	-4.414	 H	1	PGE0	0.000	
22	 H62	1.816	0.727	-2.937	 H	1	PGE0	0.000	
23	  H5	-1.218	0.515	-3.177	 H	1	PGE0	0.000	
24	 H52	-0.329	1.849	-2.404	 H	1	PGE0	0.000	
@<TRIPOS>BOND
1 1 2 1
2 1 3 1
3 1 11 1
4 1 12 1
5 2 13 1
6 3 4 1
7 3 14 1
8 3 15 1
9 4 5 1
10 5 6 1
11 5 16 1
12 5 17 1
13 6 10 1
14 6 18 1
15 6 19 1
16 7 8 1
17 7 20 1
18 8 9 1
19 8 21 1
20 8 22 1
21 9 10 1
22 9 23 1
23 9 24 1
@<TRIPOS>SUBSTRUCTURE
1	PGE0	1	GROUP	1 ****	PGE
