# created with PyMOL 2.3.5
@<TRIPOS>MOLECULE
L76
70 73 1 0 0
SMALL
USER_CHARGES


@<TRIPOS>ATOM
      1 F7         -0.5270   -2.4530    4.1400 F         1 L761        0.0000
      2 C11        -0.8470   -1.3440    3.4370 C.2       1 L761        0.0000
      3 C10        -0.8530   -1.3790    2.0530 C.2       1 L761        0.0000
      4 C9         -1.1810   -0.2450    1.3350 C.2       1 L761        0.0000
      5 C12        -1.1760   -0.1740    4.1010 C.2       1 L761        0.0000
      6 C13        -1.5040    0.9590    3.3800 C.2       1 L761        0.0000
      7 C8         -1.5040    0.9240    1.9980 C.2       1 L761        0.0000
      8 C1         -1.8610    2.1610    1.2140 C.3       1 L761        0.0000
      9 N1         -2.6890    1.7870    0.0580 N.3       1 L761        0.0000
     10 C5         -3.9030    1.0790    0.4860 C.3       1 L761        0.0000
     11 C6         -4.5980    0.4990   -0.7180 C.2       1 L761        0.0000
     12 C7         -4.3990   -0.7270   -1.2560 C.2       1 L761        0.0000
     13 C24        -3.4410   -1.7840   -0.7700 C.3       1 L761        0.0000
     14 N5         -4.0330   -2.4930    0.3730 N.3       1 L761        0.0000
     15 C26        -5.2180   -3.2580   -0.0380 C.3       1 L761        0.0000
     16 C25        -3.0440   -3.3640    1.0220 C.3       1 L761        0.0000
     17 N4         -5.2340   -0.8130   -2.3170 N.pl3     1 L761        0.0000
     18 N3         -5.8890    0.2910   -2.4060 N.2       1 L761        0.0000
     19 N2         -5.5360    1.0930   -1.4640 N.2       1 L761        0.0000
     20 C4         -3.0250    2.9700   -0.7470 C.3       1 L761        0.0000
     21 C3         -1.7340    3.6420   -1.2210 C.3       1 L761        0.0000
     22 O1         -0.9280    3.9700   -0.0850 O.3       1 L761        0.0000
     23 C2         -0.5820    2.8410    0.7200 C.3       1 L761        0.0000
     24 O2          0.1810    1.9160   -0.0580 O.3       1 L761        0.0000
     25 C14         1.4940    2.3740   -0.3830 C.3       1 L761        0.0000
     26 C21         1.4550    3.1360   -1.7090 C.3       1 L761        0.0000
     27 C15         2.4210    1.1930   -0.5100 C.2       1 L761        0.0000
     28 C20         1.9860    0.0360   -1.1280 C.2       1 L761        0.0000
     29 C19         2.8380   -1.0460   -1.2490 C.2       1 L761        0.0000
     30 C23         2.3630   -2.3070   -1.9230 C.3       1 L761        0.0000
     31 F6          1.2620   -2.8210   -1.2300 F         1 L761        0.0000
     32 F5          1.9910   -2.0200   -3.2410 F         1 L761        0.0000
     33 F4          3.3950   -3.2520   -1.9250 F         1 L761        0.0000
     34 C18         4.1260   -0.9710   -0.7530 C.2       1 L761        0.0000
     35 C17         4.5610    0.1860   -0.1340 C.2       1 L761        0.0000
     36 C16         3.7090    1.2680   -0.0130 C.2       1 L761        0.0000
     37 C22         5.9650    0.2690    0.4070 C.3       1 L761        0.0000
     38 F1          6.6490    1.3110   -0.2270 F         1 L761        0.0000
     39 F2          5.9200    0.5110    1.7850 F         1 L761        0.0000
     40 F3          6.6290   -0.9390    0.1670 F         1 L761        0.0000
     41 H1         -0.6000   -2.2920    1.5350 H         1 L761        0.0000
     42 H2         -1.1860   -0.2720    0.2550 H         1 L761        0.0000
     43 H3         -1.1770   -0.1470    5.1800 H         1 L761        0.0000
     44 H4         -1.7610    1.8720    3.8980 H         1 L761        0.0000
     45 H5         -2.4170    2.8480    1.8520 H         1 L761        0.0000
     46 H7         -3.6320    0.2750    1.1710 H         1 L761        0.0000
     47 H8         -4.5710    1.7770    0.9910 H         1 L761        0.0000
     48 H9         -3.2430   -2.4930   -1.5740 H         1 L761        0.0000
     49 H10        -2.5070   -1.3140   -0.4610 H         1 L761        0.0000
     50 H12        -4.9340   -3.9900   -0.7950 H         1 L761        0.0000
     51 H13        -5.6360   -3.7730    0.8260 H         1 L761        0.0000
     52 H14        -5.9630   -2.5780   -0.4520 H         1 L761        0.0000
     53 H15        -2.2080   -2.7610    1.3790 H         1 L761        0.0000
     54 H16        -3.5080   -3.8760    1.8640 H         1 L761        0.0000
     55 H17        -2.6810   -4.0990    0.3040 H         1 L761        0.0000
     56 H18        -5.3240   -1.5770   -2.9090 H         1 L761        0.0000
     57 H19        -3.6160    2.6670   -1.6110 H         1 L761        0.0000
     58 H20        -3.5990    3.6710   -0.1410 H         1 L761        0.0000
     59 H21        -1.1860    2.9600   -1.8700 H         1 L761        0.0000
     60 H22        -1.9770    4.5510   -1.7700 H         1 L761        0.0000
     61 H23         0.0080    3.1710    1.5760 H         1 L761        0.0000
     62 H24         1.8540    3.0350    0.4050 H         1 L761        0.0000
     63 H25         1.0950    2.4750   -2.4970 H         1 L761        0.0000
     64 H26         0.7840    3.9900   -1.6170 H         1 L761        0.0000
     65 H27         2.4570    3.4860   -1.9570 H         1 L761        0.0000
     66 H28         0.9800   -0.0230   -1.5160 H         1 L761        0.0000
     67 H29         4.7920   -1.8160   -0.8470 H         1 L761        0.0000
     68 H30         4.0510    2.1740    0.4660 H         1 L761        0.0000
     69 HN         -2.1500    1.1591   -0.5211 H         1 L761        0.0000
     70 HN1        -4.3283   -1.8020    1.0478 H         1 L761        0.0000
@<TRIPOS>BOND
     1   30   31 1
     2   30   33 1
     3   29   30 1
     4   30   32 1
     5   29   34 2
     6   28   29 1
     7   34   35 1
     8   27   28 2
     9   37   38 1
    10   35   37 1
    11   35   36 2
    12   37   39 1
    13   27   36 1
    14   25   27 1
    15   37   40 1
    16   25   26 1
    17   24   25 1
    18   23   24 1
    19   22   23 1
    20    8   23 1
    21   21   22 1
    22    5    6 2
    23    2    5 1
    24    6    7 1
    25    1    2 1
    26    2    3 2
    27    7    8 1
    28    4    7 2
    29    8    9 1
    30   20   21 1
    31    3    4 1
    32    9   20 1
    33    9   10 1
    34   18   19 2
    35   11   19 1
    36   17   18 1
    37   10   11 1
    38   11   12 2
    39   12   17 1
    40   12   13 1
    41   13   14 1
    42   14   16 1
    43   14   15 1
    44    3   41 1
    45    4   42 1
    46    5   43 1
    47    6   44 1
    48    8   45 1
    49   10   46 1
    50   10   47 1
    51   13   48 1
    52   13   49 1
    53   15   50 1
    54   15   51 1
    55   15   52 1
    56   16   53 1
    57   16   54 1
    58   16   55 1
    59   17   56 1
    60   20   57 1
    61   20   58 1
    62   21   59 1
    63   21   60 1
    64   23   61 1
    65   25   62 1
    66   26   63 1
    67   26   64 1
    68   26   65 1
    69   28   66 1
    70   34   67 1
    71   36   68 1
    72   69    9 1
    73   70   14 1
@<TRIPOS>SUBSTRUCTURE
     1 L761        1 RESIDUE           4 A     L76     0 ROOT
