@<TRIPOS>MOLECULE
G3O
24 28 1 0 0
SMALL
NO_CHARGES


@<TRIPOS>ATOM
      1 C10        20.7500   14.3180    9.1030 C.3       1 G3O451      0.0000
      2 N12        20.3110   12.1700   10.1450 N.4       1 G3O451      0.0000
      3 C13        24.1880   15.7790   10.0230 C.3       1 G3O451      0.0000
      4 C15        26.1360   17.2460   10.4570 C.3       1 G3O451      0.0000
      5 C17        25.1990   15.8230   12.2810 C.3       1 G3O451      0.0000
      6 C20        26.4540   14.7260   10.3670 C.3       1 G3O451      0.0000
      7 C21        25.1210   14.6380    9.6100 C.3       1 G3O451      0.0000
      8 C22        27.0870   16.0960   10.0570 C.3       1 G3O451      0.0000
      9 C01        19.9400   18.0240    8.6410 C.ar      1 G3O451      0.0000
     10 C02        18.6640   17.9810    8.1310 C.ar      1 G3O451      0.0000
     11 C03        18.0530   16.7820    7.9300 C.ar      1 G3O451      0.0000
     12 C04        18.7090   15.6150    8.2370 C.ar      1 G3O451      0.0000
     13 C05        20.0470   15.6580    8.7720 C.ar      1 G3O451      0.0000
     14 C06        20.6270   16.7990    8.9620 C.ar      1 G3O451      0.0000
     15 C07        21.9900   16.8870    9.5050 C.3       1 G3O451      0.0000
     16 C08        22.7850   15.6710    9.2350 C.3       1 G3O451      0.0000
     17 C11        19.9210   13.5770   10.1050 C.3       1 G3O451      0.0000
     18 C14        24.8920   17.0550    9.6650 C.3       1 G3O451      0.0000
     19 C16        25.9060   17.1120   11.9270 C.3       1 G3O451      0.0000
     20 C18        23.9590   15.6290   11.5100 C.3       1 G3O451      0.0000
     21 C19        26.1460   14.6740   11.8770 C.3       1 G3O451      0.0000
     22 O09        22.1140   14.4630    9.6560 O.3       1 G3O451      0.0000
     23 O23        17.9910   19.1740    7.8170 O.3       1 G3O451      0.0000
     24 O24        20.5720   19.2590    8.8490 O.3       1 G3O451      0.0000
@<TRIPOS>BOND
     1    1   13 1
     2    1   17 1
     3    1   22 1
     4    2   17 1
     5    3    7 1
     6    3   16 1
     7    3   18 1
     8    3   20 1
     9    4    8 1
    10    4   18 1
    11    4   19 1
    12    5   19 1
    13    5   20 1
    14    5   21 1
    15    6    7 1
    16    6    8 1
    17    6   21 1
    18    9   10 ar
    19    9   14 ar
    20    9   24 1
    21   10   11 ar
    22   10   23 1
    23   11   12 ar
    24   12   13 ar
    25   13   14 ar
    26   14   15 1
    27   15   16 1
    28   16   22 1
@<TRIPOS>SUBSTRUCTURE
     1 G3O451      1 RESIDUE           4 R     G3O     0 ROOT
