# created with PyMOL 2.3.5
@<TRIPOS>MOLECULE
JDC
73 76 1                 
SMALL
USER_CHARGES
@<TRIPOS>ATOM
1	  C1	-3.232	2.102	1.115	C.3	1	JDC0	0.000	
2	  N2	-2.647	0.817	1.511	N.3	1	JDC0	0.000	
3	  C3	-2.517	-0.065	0.340	C.3	1	JDC0	0.000	
4	  C4	-3.914	-0.525	-0.078	C.3	1	JDC0	0.000	
5	 C4A	-4.831	0.664	-0.205	C.2	1	JDC0	0.000	
6	  C5	-6.019	0.511	-0.902	C.2	1	JDC0	0.000	
7	  C6	-6.890	1.572	-1.042	C.2	1	JDC0	0.000	
8	  C7	-6.575	2.800	-0.480	C.2	1	JDC0	0.000	
9	  O7	-7.428	3.850	-0.612	O.3	1	JDC0	0.000	
10	  C8	-5.387	2.953	0.217	C.2	1	JDC0	0.000	
11	 C8A	-4.514	1.881	0.356	C.2	1	JDC0	0.000	
12	 C1A	-1.676	-1.263	0.700	C.2	1	JDC0	0.000	
13	  O1	-1.515	-1.563	1.864	O.2	1	JDC0	0.000	
14	 N2A	-1.104	-2.001	-0.271	N.pl3	1	JDC0	0.000	
15	 C2A	-0.287	-3.166	0.079	C.3	1	JDC0	0.000	
16	 C3A	-1.107	-4.442	-0.117	C.3	1	JDC0	0.000	
17	 C3D	-0.254	-5.658	0.248	C.3	1	JDC0	0.000	
18	 C3B	-2.343	-4.397	0.783	C.3	1	JDC0	0.000	
19	 C4D	0.949	-3.211	-0.822	C.3	1	JDC0	0.000	
20	 N11	1.678	-1.939	-0.717	N.3	1	JDC0	0.000	
21	 C21	2.420	-1.861	0.547	C.3	1	JDC0	0.000	
22	 C31	3.046	-0.472	0.688	C.3	1	JDC0	0.000	
23	 C34	1.942	0.587	0.697	C.3	1	JDC0	0.000	
24	 C41	3.987	-0.219	-0.494	C.3	1	JDC0	0.000	
25	 C51	3.200	-0.354	-1.800	C.3	1	JDC0	0.000	
26	 C61	2.569	-1.747	-1.869	C.3	1	JDC0	0.000	
27	 C4E	5.122	-1.244	-0.471	C.3	1	JDC0	0.000	
28	 C1C	4.560	1.171	-0.393	C.2	1	JDC0	0.000	
29	 C2C	5.387	1.501	0.663	C.2	1	JDC0	0.000	
30	 C3C	5.915	2.780	0.756	C.2	1	JDC0	0.000	
31	 O3C	6.730	3.108	1.793	O.3	1	JDC0	0.000	
32	 C4C	5.611	3.725	-0.214	C.2	1	JDC0	0.000	
33	 C5C	4.784	3.390	-1.268	C.2	1	JDC0	0.000	
34	 C6C	4.263	2.112	-1.360	C.2	1	JDC0	0.000	
35	  H1	-3.438	2.694	2.007	 H	1	JDC0	0.000	
36	  H2	-2.526	2.639	0.481	 H	1	JDC0	0.000	
37	  H3	-3.194	0.379	2.236	 H	1	JDC0	0.000	
38	  H5	-2.050	0.480	-0.480	 H	1	JDC0	0.000	
39	  H6	-3.854	-1.040	-1.037	 H	1	JDC0	0.000	
40	  H7	-4.310	-1.209	0.674	 H	1	JDC0	0.000	
41	  H8	-6.265	-0.446	-1.339	 H	1	JDC0	0.000	
42	  H9	-7.814	1.447	-1.587	 H	1	JDC0	0.000	
43	 H10	-8.082	3.916	0.097	 H	1	JDC0	0.000	
44	 H11	-5.140	3.909	0.655	 H	1	JDC0	0.000	
45	 H12	-1.233	-1.761	-1.202	 H	1	JDC0	0.000	
46	 H13	0.025	-3.091	1.120	 H	1	JDC0	0.000	
47	 H14	-1.419	-4.517	-1.159	 H	1	JDC0	0.000	
48	 H15	0.058	-5.583	1.289	 H	1	JDC0	0.000	
49	 H16	-0.838	-6.568	0.108	 H	1	JDC0	0.000	
50	 H17	0.627	-5.690	-0.394	 H	1	JDC0	0.000	
51	 H18	-2.031	-4.322	1.825	 H	1	JDC0	0.000	
52	 H19	-2.951	-3.531	0.523	 H	1	JDC0	0.000	
53	 H20	-2.928	-5.307	0.643	 H	1	JDC0	0.000	
54	 H21	1.598	-4.028	-0.508	 H	1	JDC0	0.000	
55	 H22	0.640	-3.368	-1.856	 H	1	JDC0	0.000	
56	 H24	1.739	-2.039	1.380	 H	1	JDC0	0.000	
57	 H25	3.206	-2.616	0.554	 H	1	JDC0	0.000	
58	 H26	3.609	-0.419	1.620	 H	1	JDC0	0.000	
59	 H27	1.227	0.360	1.488	 H	1	JDC0	0.000	
60	 H28	2.382	1.569	0.876	 H	1	JDC0	0.000	
61	 H29	1.431	0.588	-0.265	 H	1	JDC0	0.000	
62	 H30	2.415	0.402	-1.832	 H	1	JDC0	0.000	
63	 H31	3.873	-0.217	-2.647	 H	1	JDC0	0.000	
64	 H32	3.355	-2.503	-1.850	 H	1	JDC0	0.000	
65	 H33	1.996	-1.842	-2.791	 H	1	JDC0	0.000	
66	 H34	4.707	-2.249	-0.547	 H	1	JDC0	0.000	
67	 H35	5.791	-1.064	-1.313	 H	1	JDC0	0.000	
68	 H36	5.679	-1.150	0.461	 H	1	JDC0	0.000	
69	 H37	5.622	0.764	1.417	 H	1	JDC0	0.000	
70	 H38	7.668	2.946	1.623	 H	1	JDC0	0.000	
71	 H39	6.021	4.722	-0.144	 H	1	JDC0	0.000	
72	 H40	4.547	4.125	-2.022	 H	1	JDC0	0.000	
73	 H41	3.620	1.851	-2.188	 H	1	JDC0	0.000	
@<TRIPOS>BOND
1 16 18 1
2 16 17 1
3 15 16 1
4 15 19 1
5 19 20 1
6 14 15 1
7 12 14 1
8 20 26 1
9 25 26 1
10 20 21 1
11 3 12 1
12 12 13 2
13 3 4 1
14 2 3 1
15 4 5 1
16 5 6 2
17 6 7 1
18 5 11 1
19 21 22 1
20 7 8 2
21 24 25 1
22 1 11 1
23 10 11 2
24 1 2 1
25 8 10 1
26 8 9 1
27 24 27 1
28 22 24 1
29 24 28 1
30 22 23 1
31 28 34 2
32 28 29 1
33 33 34 1
34 29 30 2
35 32 33 2
36 30 32 1
37 30 31 1
38 1 35 1
39 1 36 1
40 2 37 1
41 3 38 1
42 4 39 1
43 4 40 1
44 6 41 1
45 7 42 1
46 9 43 1
47 10 44 1
48 14 45 1
49 15 46 1
50 16 47 1
51 17 48 1
52 17 49 1
53 17 50 1
54 18 51 1
55 18 52 1
56 18 53 1
57 19 54 1
58 19 55 1
59 21 56 1
60 21 57 1
61 22 58 1
62 23 59 1
63 23 60 1
64 23 61 1
65 25 62 1
66 25 63 1
67 26 64 1
68 26 65 1
69 27 66 1
70 27 67 1
71 27 68 1
72 29 69 1
73 31 70 1
74 32 71 1
75 33 72 1
76 34 73 1
@<TRIPOS>SUBSTRUCTURE
1	JDC0	1	GROUP	1 ****	JDC
