# created with PyMOL 2.3.5
@<TRIPOS>MOLECULE
P32
43 44 1 0 0
SMALL
USER_CHARGES


@<TRIPOS>ATOM
      1 H01         8.6050   24.6100   25.1850 H         1 P321        0.0000
      2 O2         10.1600   22.6880   25.8830 O.3       1 P321        0.0000
      3 C10         9.4260   21.9870   24.9160 C.3       1 P321        0.0000
      4 N3          5.4040   17.8160   19.6020 N.1       1 P321        0.0000
      5 C11         8.6230   22.9220   23.9820 C.3       1 P321        0.0000
      6 N2          7.8850   23.9000   24.7780 N.3       1 P321        0.0000
      7 C12         6.9070   24.6600   23.9740 C.3       1 P321        0.0000
      8 C15         6.4730   25.8790   24.8160 C.3       1 P321        0.0000
      9 C13         5.6690   23.7730   23.6560 C.3       1 P321        0.0000
     10 C9         10.4310   21.2650   24.0300 C.3       1 P321        0.0000
     11 O1          9.7850   20.0610   23.6660 O.3       1 P321        0.0000
     12 C4         10.2800   19.2850   22.6800 C.2       1 P321        0.0000
     13 C5         11.6340   19.0060   22.6280 C.2       1 P321        0.0000
     14 C6         12.1110   18.1590   21.6350 C.2       1 P321        0.0000
     15 C7         11.2470   17.5870   20.6990 C.2       1 P321        0.0000
     16 C8          9.8900   17.8770   20.7610 C.2       1 P321        0.0000
     17 C3          9.4130   18.7300   21.7530 C.2       1 P321        0.0000
     18 N1          8.8420   17.5010   20.0360 N.2       1 P321        0.0000
     19 C1          7.7750   18.0760   20.5620 C.2       1 P321        0.0000
     20 C2          8.1000   18.8480   21.6060 C.3       1 P321        0.0000
     21 C16         6.4250   17.9080   20.0960 C.1       1 P321        0.0000
     22 C14         7.5600   25.1830   22.6680 C.3       1 P321        0.0000
     23 H1          7.5650   18.5390   22.5160 H         1 P321        0.0000
     24 H2          7.8240   19.8950   21.4150 H         1 P321        0.0000
     25 H5         12.3110   19.4400   23.3490 H         1 P321        0.0000
     26 H6         13.1670   17.9400   21.5860 H         1 P321        0.0000
     27 H7         11.6300   16.9260   19.9350 H         1 P321        0.0000
     28 H9C1       11.3660   21.0650   24.5730 H         1 P321        0.0000
     29 H9C2       10.7170   21.8640   23.1530 H         1 P321        0.0000
     30 H10         8.7240   21.3220   25.4400 H         1 P321        0.0000
     31 HA         11.0390   22.8470   25.5600 H         1 P321        0.0000
     32 H111        9.3160   23.4480   23.3080 H         1 P321        0.0000
     33 H112        7.9140   22.3240   23.3910 H         1 P321        0.0000
     34 HB          7.3920   23.4140   25.5000 H         1 P321        0.0000
     35 H131        5.1190   23.5640   24.5850 H         1 P321        0.0000
     36 H132        5.0100   24.3020   22.9510 H         1 P321        0.0000
     37 H133        6.0030   22.8260   23.2060 H         1 P321        0.0000
     38 H141        6.7870   25.3070   21.8950 H         1 P321        0.0000
     39 H142        8.0430   26.1520   22.8620 H         1 P321        0.0000
     40 H143        8.3130   24.4610   22.3200 H         1 P321        0.0000
     41 H151        6.3700   25.5800   25.8690 H         1 P321        0.0000
     42 H152        7.2320   26.6710   24.7330 H         1 P321        0.0000
     43 H153        5.5080   26.2550   24.4460 H         1 P321        0.0000
@<TRIPOS>BOND
     1    2   31 1
     2    2    3 1
     3    3    5 1
     4    3   30 1
     5    5    6 1
     6    5   32 1
     7    5   33 1
     8    1    6 1
     9    6    7 1
    10    6   34 1
    11    7    8 1
    12    7    9 1
    13    7   22 1
    14    8   41 1
    15    8   42 1
    16    8   43 1
    17    9   35 1
    18    9   36 1
    19    9   37 1
    20    3   10 1
    21   10   28 1
    22   10   29 1
    23   10   11 1
    24   11   12 1
    25   12   13 2
    26   13   14 1
    27   13   25 1
    28   14   15 2
    29   14   26 1
    30   15   16 1
    31   15   27 1
    32   12   17 1
    33   16   17 2
    34   16   18 1
    35   18   19 2
    36   19   20 1
    37   17   20 1
    38   20   23 1
    39   20   24 1
    40    4   21 3
    41   19   21 1
    42   22   38 1
    43   22   39 1
    44   22   40 1
@<TRIPOS>SUBSTRUCTURE
     1 P321        1 RESIDUE           4 A     P32     0 ROOT
