# created with PyMOL 2.3.5
@<TRIPOS>MOLECULE
9AF
86 89 1 0 0
SMALL
USER_CHARGES


@<TRIPOS>ATOM
      1 C1          6.2700    2.4270   -1.2980 C.2       1 9AF1        0.0000
      2 C10         6.2460   -0.0570   -0.8900 C.3       1 9AF1        0.0000
      3 C11         5.1660   -0.1390    0.1580 C.2       1 9AF1        0.0000
      4 C12         5.4940   -0.0440    1.4980 C.2       1 9AF1        0.0000
      5 C13         4.5060   -0.1190    2.4620 C.2       1 9AF1        0.0000
      6 C2          6.9260    1.2790   -0.7940 C.2       1 9AF1        0.0000
      7 C3          8.1440    1.4080   -0.2410 C.2       1 9AF1        0.0000
      8 C4          8.7840    2.7700   -0.1580 C.3       1 9AF1        0.0000
      9 C5          8.4360   -0.9440   -0.1250 C.2       1 9AF1        0.0000
     10 C6          9.3880   -2.0940    0.0820 C.3       1 9AF1        0.0000
     11 C7          7.2300   -1.1710   -0.6730 C.2       1 9AF1        0.0000
     12 C8          6.8800   -2.4870   -1.0550 C.2       1 9AF1        0.0000
     13 C9          6.2030   -4.7060   -0.5710 C.3       1 9AF1        0.0000
     14 N1          1.5180   -0.5550    0.3640 N.pl3     1 9AF1        0.0000
     15 N2         -0.7560   -0.2250    0.7770 N.pl3     1 9AF1        0.0000
     16 O1          6.2820    2.6590   -2.4920 O.co2     1 9AF1        0.0000
     17 O2          6.8800   -2.8000   -2.2310 O.co2     1 9AF1        0.0000
     18 O3          6.5460   -3.3960   -0.1150 O.3       1 9AF1        0.0000
     19 O4          0.8090    0.7850    1.9880 O.2       1 9AF1        0.0000
     20 C16         0.5340    0.0290    1.0760 C.2       1 9AF1        0.0000
     21 C15         2.8540   -0.3830    0.7450 C.2       1 9AF1        0.0000
     22 C14         3.1870   -0.2880    2.0900 C.2       1 9AF1        0.0000
     23 C32         3.8480   -0.3020   -0.2210 C.2       1 9AF1        0.0000
     24 N           8.8100    0.3180    0.2490 N.pl3     1 9AF1        0.0000
     25 O           5.6260    3.2610   -0.4540 O.3       1 9AF1        0.0000
     26 C           4.9860    4.4000   -1.0320 C.3       1 9AF1        0.0000
     27 C17        -1.8260    0.4100    1.5510 C.3       1 9AF1        0.0000
     28 C18        -3.1840   -0.0430    1.0110 C.3       1 9AF1        0.0000
     29 C19        -4.3010    0.6200    1.8190 C.3       1 9AF1        0.0000
     30 N3         -5.6040    0.1850    1.3010 N.3       1 9AF1        0.0000
     31 C31        -6.6930    0.6070    2.1910 C.3       1 9AF1        0.0000
     32 C30        -8.0150    0.0150    1.7000 C.3       1 9AF1        0.0000
     33 C22        -8.2850    0.4950    0.2710 C.3       1 9AF1        0.0000
     34 C21        -7.1140    0.0840   -0.6260 C.3       1 9AF1        0.0000
     35 C20        -5.8170    0.6750   -0.0670 C.3       1 9AF1        0.0000
     36 C23        -9.5560   -0.1310   -0.2400 C.2       1 9AF1        0.0000
     37 C29       -10.6130    0.6700   -0.6280 C.2       1 9AF1        0.0000
     38 C27       -11.7810    0.0920   -1.1040 C.2       1 9AF1        0.0000
     39 O5        -12.8220    0.8780   -1.4870 O.3       1 9AF1        0.0000
     40 C28       -13.9930    0.2150   -1.9670 C.3       1 9AF1        0.0000
     41 C26       -11.8850   -1.2880   -1.1880 C.2       1 9AF1        0.0000
     42 C25       -10.8260   -2.0850   -0.7990 C.2       1 9AF1        0.0000
     43 C24        -9.6630   -1.5070   -0.3250 C.2       1 9AF1        0.0000
     44 H1          5.7960   -0.1620   -1.8770 H         1 9AF1        0.0000
     45 H2          6.5250    0.0880    1.7920 H         1 9AF1        0.0000
     46 H3          4.7660   -0.0460    3.5080 H         1 9AF1        0.0000
     47 H5          8.5760    3.2100    0.8170 H         1 9AF1        0.0000
     48 H6          9.8610    2.6740   -0.2910 H         1 9AF1        0.0000
     49 H7          8.3760    3.4110   -0.9400 H         1 9AF1        0.0000
     50 H9         10.0700   -2.1580   -0.7650 H         1 9AF1        0.0000
     51 H10         9.9580   -1.9340    0.9970 H         1 9AF1        0.0000
     52 H11         8.8230   -3.0230    0.1650 H         1 9AF1        0.0000
     53 H13         5.9560   -5.3350    0.2830 H         1 9AF1        0.0000
     54 H14         5.3430   -4.6450   -1.2380 H         1 9AF1        0.0000
     55 H15         7.0490   -5.1360   -1.1070 H         1 9AF1        0.0000
     56 H16         1.3010   -1.0950   -0.4120 H         1 9AF1        0.0000
     57 H17        -0.9750   -0.8270    0.0500 H         1 9AF1        0.0000
     58 H18         2.4160   -0.3510    2.8430 H         1 9AF1        0.0000
     59 H19         3.5920   -0.3750   -1.2680 H         1 9AF1        0.0000
     60 H20         5.7280    5.0150   -1.5420 H         1 9AF1        0.0000
     61 H21         4.2330    4.0700   -1.7480 H         1 9AF1        0.0000
     62 H22         4.5070    4.9850   -0.2470 H         1 9AF1        0.0000
     63 H23        -1.7370    0.1220    2.5990 H         1 9AF1        0.0000
     64 H24        -1.7430    1.4930    1.4640 H         1 9AF1        0.0000
     65 H25        -3.2730    0.2450   -0.0360 H         1 9AF1        0.0000
     66 H26        -3.2660   -1.1270    1.0980 H         1 9AF1        0.0000
     67 H27        -4.2120    0.3320    2.8670 H         1 9AF1        0.0000
     68 H28        -4.2180    1.7030    1.7320 H         1 9AF1        0.0000
     69 H30        -6.4910    0.2550    3.2030 H         1 9AF1        0.0000
     70 H31        -6.7600    1.6950    2.1920 H         1 9AF1        0.0000
     71 H32        -7.9540   -1.0730    1.7120 H         1 9AF1        0.0000
     72 H33        -8.8250    0.3410    2.3530 H         1 9AF1        0.0000
     73 H34        -8.3850    1.5810    0.2650 H         1 9AF1        0.0000
     74 H35        -7.0380   -1.0030   -0.6500 H         1 9AF1        0.0000
     75 H36        -7.2790    0.4610   -1.6360 H         1 9AF1        0.0000
     76 H37        -5.8890    1.7630   -0.0560 H         1 9AF1        0.0000
     77 H38        -4.9800    0.3720   -0.6960 H         1 9AF1        0.0000
     78 H39       -10.5290    1.7440   -0.5610 H         1 9AF1        0.0000
     79 H40       -14.7450    0.9570   -2.2380 H         1 9AF1        0.0000
     80 H41       -13.7390   -0.3820   -2.8420 H         1 9AF1        0.0000
     81 H42       -14.3890   -0.4340   -1.1860 H         1 9AF1        0.0000
     82 H43       -12.7940   -1.7400   -1.5580 H         1 9AF1        0.0000
     83 H44       -10.9070   -3.1600   -0.8640 H         1 9AF1        0.0000
     84 H45        -8.8340   -2.1320   -0.0250 H         1 9AF1        0.0000
     85 H4          9.5500    0.4400    0.8630 H         1 9AF1        0.0000
     86 HN         -5.6032   -0.8246    1.2710 H         1 9AF1        0.0000
@<TRIPOS>BOND
     1   39   40 1
     2   38   39 1
     3   38   41 2
     4   37   38 1
     5   41   42 1
     6   36   37 2
     7   42   43 2
     8   36   43 1
     9   33   36 1
    10   33   34 1
    11   34   35 1
    12   32   33 1
    13   30   35 1
    14   31   32 1
    15   27   28 1
    16   28   29 1
    17   30   31 1
    18   29   30 1
    19   15   27 1
    20   15   20 1
    21   19   20 2
    22   14   20 1
    23   14   21 1
    24   21   22 2
    25   21   23 1
    26    5   22 1
    27    3   23 2
    28    4    5 2
    29   25   26 1
    30    1   25 1
    31    3    4 1
    32    2    3 1
    33    1   16 2
    34    2    6 1
    35    6    7 2
    36    2   11 1
    37    7    8 1
    38    7   24 1
    39    9   11 2
    40    9   24 1
    41   12   17 2
    42    9   10 1
    43   12   18 1
    44   13   18 1
    45    2   44 1
    46    4   45 1
    47    5   46 1
    48    8   47 1
    49    8   48 1
    50    8   49 1
    51   10   50 1
    52   10   51 1
    53   10   52 1
    54   13   53 1
    55   13   54 1
    56   13   55 1
    57   14   56 1
    58   15   57 1
    59   22   58 1
    60   23   59 1
    61   26   60 1
    62   26   61 1
    63   26   62 1
    64   27   63 1
    65   27   64 1
    66   28   65 1
    67   28   66 1
    68   29   67 1
    69   29   68 1
    70   31   69 1
    71   31   70 1
    72   32   71 1
    73   32   72 1
    74   33   73 1
    75   34   74 1
    76   34   75 1
    77   35   76 1
    78   35   77 1
    79   37   78 1
    80   40   79 1
    81   40   80 1
    82   40   81 1
    83   41   82 1
    84   42   83 1
    85   43   84 1
    86   24   85 1
    87    1    6 1
    88   11   12 1
    89   86   30 1
@<TRIPOS>SUBSTRUCTURE
     1 9AF1        1 RESIDUE           4 A     9AF     0 ROOT
