# created with PyMOL 2.3.5
@<TRIPOS>MOLECULE
8D0
66 68 1 0 0
SMALL
USER_CHARGES


@<TRIPOS>ATOM
      1 C1         -1.4988    1.7514   -0.2618 C.2       1 8D0    0.0000
      2 C2         -0.3898    0.9767    0.0146 C.2       1 8D0    0.0000
      3 C3         -0.5443   -0.3338    0.4232 C.2       1 8D0    0.0000
      4 C4         -1.8168   -0.8687    0.5595 C.2       1 8D0    0.0000
      5 C5         -2.9338   -0.0921    0.2871 C.2       1 8D0    0.0000
      6 N1          9.6692    0.7375    0.3836 N.1       1 8D0    0.0000
      7 C10        -4.3588   -2.1425    0.0308 C.3       1 8D0    0.0000
      8 C11        -5.7702   -2.6796    0.2963 C.3       1 8D0    0.0000
      9 C12        -6.8004   -1.8613   -0.4807 C.3       1 8D0    0.0000
     10 C13        -6.7141   -0.3840   -0.0809 C.3       1 8D0    0.0000
     11 C14        -5.8471   -4.1425   -0.1439 C.3       1 8D0    0.0000
     12 C15        -5.3073    1.7909    1.4813 C.3       1 8D0    0.0000
     13 C16        -6.2035    2.4226   -0.7685 C.3       1 8D0    0.0000
     14 C17         0.9907    1.5616   -0.1295 C.3       1 8D0    0.0000
     15 C18         2.0341    0.5033    0.2351 C.3       1 8D0    0.0000
     16 C19         1.2053    2.0124   -1.5767 C.3       1 8D0    0.0000
     17 C20         1.1360    2.7646    0.8054 C.3       1 8D0    0.0000
     18 C21         3.4364    1.0976    0.0876 C.3       1 8D0    0.0000
     19 C22         4.4797    0.0392    0.4522 C.3       1 8D0    0.0000
     20 C23         5.8820    0.6326    0.3057 C.3       1 8D0    0.0000
     21 C24         6.9244   -0.4258    0.6704 C.3       1 8D0    0.0000
     22 C25         8.3267    0.1685    0.5239 C.1       1 8D0    0.0000
     23 C6         -2.7784    1.2212   -0.1316 C.2       1 8D0    0.0000
     24 C7         -4.3051   -0.6794    0.4582 C.3       1 8D0    0.0000
     25 C8         -5.3054    0.1203   -0.3807 C.3       1 8D0    0.0000
     26 C9         -5.1476    1.5991   -0.0285 C.3       1 8D0    0.0000
     27 O1         -3.8400    2.0154   -0.4278 O.3       1 8D0    0.0000
     28 O2         -7.1237   -4.6792    0.2095 O.3       1 8D0    0.0000
     29 O3         -1.9709   -2.1584    0.9607 O.3       1 8D0    0.0000
     30 H1         -1.3718    2.7760   -0.5774 H         1 8D0    0.0000
     31 H2          0.3237   -0.9405    0.6362 H         1 8D0    0.0000
     32 H6         -3.6342   -2.7188    0.6055 H         1 8D0    0.0000
     33 H7         -4.1314   -2.2211   -1.0327 H         1 8D0    0.0000
     34 H8         -5.9863   -2.6127    1.3630 H         1 8D0    0.0000
     35 H9         -6.6076   -1.9587   -1.5496 H         1 8D0    0.0000
     36 H10        -7.8003   -2.2371   -0.2619 H         1 8D0    0.0000
     37 H11        -7.4397    0.1933   -0.6556 H         1 8D0    0.0000
     38 H12        -6.9250   -0.2801    0.9830 H         1 8D0    0.0000
     39 H13        -5.7132   -4.2043   -1.2240 H         1 8D0    0.0000
     40 H14        -5.0633   -4.7132    0.3532 H         1 8D0    0.0000
     41 H15        -4.5452    1.2123    2.0037 H         1 8D0    0.0000
     42 H16        -5.1941    2.8465    1.7273 H         1 8D0    0.0000
     43 H17        -6.2962    1.4501    1.7884 H         1 8D0    0.0000
     44 H18        -7.1986    2.0854   -0.4754 H         1 8D0    0.0000
     45 H19        -6.0872    3.4764   -0.5135 H         1 8D0    0.0000
     46 H20        -6.0782    2.2927   -1.8432 H         1 8D0    0.0000
     47 H21         1.8813    0.1825    1.2650 H         1 8D0    0.0000
     48 H22         1.9312   -0.3533   -0.4310 H         1 8D0    0.0000
     49 H23         2.2043    2.4354   -1.6804 H         1 8D0    0.0000
     50 H24         1.1025    1.1558   -2.2428 H         1 8D0    0.0000
     51 H25         0.4630    2.7667   -1.8357 H         1 8D0    0.0000
     52 H26         0.9833    2.4428    1.8353 H         1 8D0    0.0000
     53 H27         2.1350    3.1876    0.7007 H         1 8D0    0.0000
     54 H28         0.3937    3.5179    0.5454 H         1 8D0    0.0000
     55 H29         3.5891    1.4183   -0.9423 H         1 8D0    0.0000
     56 H30         3.5402    1.9532    0.7538 H         1 8D0    0.0000
     57 H31         4.3270   -0.2815    1.4832 H         1 8D0    0.0000
     58 H32         4.3759   -0.8174   -0.2139 H         1 8D0    0.0000
     59 H33         6.0348    0.9533   -0.7242 H         1 8D0    0.0000
     60 H34         5.9849    1.4892    0.9719 H         1 8D0    0.0000
     61 H35         6.7716   -0.7465    1.7003 H         1 8D0    0.0000
     62 H36         6.8216   -1.2824    0.0042 H         1 8D0    0.0000
     63 H39        -4.5945   -0.6043    1.5064 H         1 8D0    0.0000
     64 H40        -5.0886   -0.0244   -1.4389 H         1 8D0    0.0000
     65 H41        -7.2435   -5.6059   -0.0410 H         1 8D0    0.0000
     66 H42        -2.0364   -2.2667    1.9196 H         1 8D0    0.0000
@<TRIPOS>BOND
     1   20   21 1
     2   19   20 1
     3   21   22 1
     4   14   16 1
     5   18   19 1
     6   15   18 1
     7   14   15 1
     8    6   22 3
     9   14   17 1
    10    2   14 1
    11    2    3 2
    12    3    4 1
    13    4   29 1
    14    1    2 1
    15    4    5 2
    16   11   28 1
    17    1   23 2
    18    5   23 1
    19    5   24 1
    20    7   24 1
    21    7    8 1
    22   23   27 1
    23    8   11 1
    24   24   25 1
    25    8    9 1
    26   26   27 1
    27   25   26 1
    28   10   25 1
    29    9   10 1
    30   12   26 1
    31   13   26 1
    32    1   30 1
    33    3   31 1
    34    7   32 1
    35    7   33 1
    36    8   34 1
    37    9   35 1
    38    9   36 1
    39   10   37 1
    40   10   38 1
    41   11   39 1
    42   11   40 1
    43   12   41 1
    44   12   42 1
    45   12   43 1
    46   13   44 1
    47   13   45 1
    48   13   46 1
    49   15   47 1
    50   15   48 1
    51   16   49 1
    52   16   50 1
    53   16   51 1
    54   17   52 1
    55   17   53 1
    56   17   54 1
    57   18   55 1
    58   18   56 1
    59   19   57 1
    60   19   58 1
    61   20   59 1
    62   20   60 1
    63   21   61 1
    64   21   62 1
    65   24   63 1
    66   25   64 1
    67   28   65 1
    68   29   66 1
@<TRIPOS>SUBSTRUCTURE
     1 8D0     1 RESIDUE           4 A     8D0     0 ROOT
