# created with PyMOL 2.3.5
@<TRIPOS>MOLECULE
XF5
30 32 1                 
SMALL
USER_CHARGES
@<TRIPOS>ATOM
1	 C11	-1.875	0.241	-1.200	C.3	1	XF50	0.000	
2	 C12	-3.226	-0.477	-1.218	C.3	1	XF50	0.000	
3	 N13	-3.961	-0.163	0.015	N.3	1	XF50	0.000	
4	 C14	-3.201	-0.585	1.200	C.3	1	XF50	0.000	
5	 C15	-1.850	0.134	1.218	C.3	1	XF50	0.000	
6	 N10	-1.115	-0.180	-0.015	N.pl3	1	XF50	0.000	
7	  C3	0.154	0.400	-0.002	C.2	1	XF50	0.000	
8	  C4	1.301	-0.407	-0.010	C.2	1	XF50	0.000	
9	  C5	1.525	-1.854	-0.030	C.2	1	XF50	0.000	
10	  C6	2.853	-2.046	-0.028	C.2	1	XF50	0.000	
11	  N7	3.497	-0.837	-0.008	N.pl3	1	XF50	0.000	
12	  C8	2.575	0.185	0.003	C.2	1	XF50	0.000	
13	  C9	2.685	1.573	0.024	C.2	1	XF50	0.000	
14	  C1	1.552	2.355	0.032	C.2	1	XF50	0.000	
15	  C2	0.290	1.777	0.012	C.2	1	XF50	0.000	
16	H111	-1.316	-0.013	-2.100	 H	1	XF50	0.000	
17	H112	-2.036	1.319	-1.164	 H	1	XF50	0.000	
18	H121	-3.803	-0.144	-2.081	 H	1	XF50	0.000	
19	H122	-3.065	-1.553	-1.281	 H	1	XF50	0.000	
20	 H13	-4.188	0.819	0.061	 H	1	XF50	0.000	
21	H141	-3.761	-0.330	2.100	 H	1	XF50	0.000	
22	H142	-3.040	-1.662	1.164	 H	1	XF50	0.000	
23	H151	-2.011	1.210	1.281	 H	1	XF50	0.000	
24	H152	-1.273	-0.199	2.080	 H	1	XF50	0.000	
25	  H2	-0.589	2.404	0.013	 H	1	XF50	0.000	
26	  H5	0.765	-2.622	-0.043	 H	1	XF50	0.000	
27	  H6	3.342	-3.009	-0.039	 H	1	XF50	0.000	
28	  H7	4.460	-0.719	-0.002	 H	1	XF50	0.000	
29	  H9	3.661	2.036	0.035	 H	1	XF50	0.000	
30	  H1	1.645	3.431	0.049	 H	1	XF50	0.000	
@<TRIPOS>BOND
1 1 2 1
2 1 6 1
3 2 3 1
4 3 4 1
5 4 5 1
6 5 6 1
7 6 7 1
8 7 8 1
9 7 15 2
10 8 9 1
11 8 12 2
12 9 10 2
13 10 11 1
14 11 12 1
15 12 13 1
16 13 14 2
17 14 15 1
18 1 16 1
19 1 17 1
20 2 18 1
21 2 19 1
22 3 20 1
23 4 21 1
24 4 22 1
25 5 23 1
26 5 24 1
27 15 25 1
28 9 26 1
29 10 27 1
30 11 28 1
31 13 29 1
32 14 30 1
@<TRIPOS>SUBSTRUCTURE
1	XF50	1	GROUP	1 ****	XF5
