# created with PyMOL 2.3.5
@<TRIPOS>MOLECULE
SO4
5 4 1                   
SMALL
USER_CHARGES
@<TRIPOS>ATOM
1	   S	0.000	0.000	0.000	S.3	1	SO40	0.000	
2	  O1	0.000	-1.201	-0.850	O.2	1	SO40	0.000	
3	  O2	0.000	1.201	-0.850	O.2	1	SO40	0.000	
4	  O3	-1.201	0.000	0.850	 O	1	SO40	0.000	
5	  O4	1.201	0.000	0.850	 O	1	SO40	0.000	
@<TRIPOS>BOND
1 1 2 2
2 1 3 2
3 1 4 1
4 1 5 1
@<TRIPOS>SUBSTRUCTURE
1	SO40	1	GROUP	1 ****	SO4
