# created with PyMOL 2.3.5
@<TRIPOS>MOLECULE
MK6
67 71 1 0 0
SMALL
USER_CHARGES


@<TRIPOS>ATOM
      1 O5         10.9090   -3.1970   -0.3300 O.co2     1 MK61        0.0000
      2 C28        10.6330   -2.1280    0.1610 C.2       1 MK61        0.0000
      3 O4         11.4640   -1.5640    1.0510 O.3       1 MK61        0.0000
      4 C27         9.3590   -1.4240   -0.2320 C.3       1 MK61        0.0000
      5 C2          8.4600   -2.1140   -1.2610 C.3       1 MK61        0.0000
      6 C1          8.0390   -2.0550    0.2140 C.3       1 MK61        0.0000
      7 C           6.8040   -1.1930    0.2870 C.2       1 MK61        0.0000
      8 C7          6.0330   -0.8150    1.3730 C.2       1 MK61        0.0000
      9 N           4.9750   -0.0440    1.2180 N.2       1 MK61        0.0000
     10 C6          4.6070    0.3990    0.0270 C.2       1 MK61        0.0000
     11 C5          5.3340    0.0600   -1.1060 C.2       1 MK61        0.0000
     12 C4          6.4520   -0.7490   -0.9750 C.2       1 MK61        0.0000
     13 C3          7.4380   -1.2640   -2.0290 C.3       1 MK61        0.0000
     14 O           3.5110    1.1910   -0.0870 O.3       1 MK61        0.0000
     15 C8          2.8070    1.5020    1.1170 C.3       1 MK61        0.0000
     16 C9          1.6280    2.3840    0.7950 C.2       1 MK61        0.0000
     17 C26         1.7750    3.7600    0.7920 C.2       1 MK61        0.0000
     18 C25         0.6970    4.5750    0.4980 C.2       1 MK61        0.0000
     19 C24        -0.5320    4.0190    0.2050 C.2       1 MK61        0.0000
     20 C11        -0.6860    2.6350    0.2060 C.2       1 MK61        0.0000
     21 C10         0.4050    1.8180    0.4980 C.2       1 MK61        0.0000
     22 C12        -2.0050    2.0320   -0.1080 C.2       1 MK61        0.0000
     23 C17        -2.5570    2.1830   -1.3780 C.2       1 MK61        0.0000
     24 C18        -1.8150    2.9600   -2.4360 C.3       1 MK61        0.0000
     25 C16        -3.7830    1.6220   -1.6670 C.2       1 MK61        0.0000
     26 C15        -4.4670    0.9070   -0.6930 C.2       1 MK61        0.0000
     27 C14        -3.9200    0.7550    0.5730 C.2       1 MK61        0.0000
     28 C13        -2.6910    1.3080    0.8660 C.2       1 MK61        0.0000
     29 C23        -2.0940    1.1360    2.2390 C.3       1 MK61        0.0000
     30 O1         -5.6750    0.3550   -0.9800 O.3       1 MK61        0.0000
     31 C19        -6.3240   -0.3670    0.0680 C.3       1 MK61        0.0000
     32 C20        -7.6620   -0.9110   -0.4390 C.3       1 MK61        0.0000
     33 C21        -8.3560   -1.6840    0.6830 C.3       1 MK61        0.0000
     34 S          -9.9420   -2.3290    0.0820 S.O2      1 MK61        0.0000
     35 O2        -10.7980   -1.2310   -0.2030 O.2       1 MK61        0.0000
     36 O3         -9.6840   -3.2900   -0.9330 O.2       1 MK61        0.0000
     37 C22       -10.5760   -3.1910    1.5470 C.3       1 MK61        0.0000
     38 H27         9.3931   -0.3350   -0.2654 H         1 MK61        0.0000
     39 H2          8.7757   -3.0685   -1.6822 H         1 MK61        0.0000
     40 H1          8.0714   -2.9715    0.8031 H         1 MK61        0.0000
     41 H7          6.3022   -1.1567    2.3615 H         1 MK61        0.0000
     42 H5          5.0322    0.4222   -2.0777 H         1 MK61        0.0000
     43 H32         7.9339   -0.4297   -2.5252 H         1 MK61        0.0000
     44 H33         6.9154   -1.8785   -2.7620 H         1 MK61        0.0000
     45 H82         2.4554    0.5804    1.5807 H         1 MK61        0.0000
     46 H83         3.4740    2.0231    1.8038 H         1 MK61        0.0000
     47 H26         2.7350    4.1990    1.0201 H         1 MK61        0.0000
     48 H25         0.8170    5.6483    0.4977 H         1 MK61        0.0000
     49 H24        -1.3730    4.6565   -0.0247 H         1 MK61        0.0000
     50 H10         0.2933    0.7438    0.4918 H         1 MK61        0.0000
     51 H16        -4.2114    1.7388   -2.6515 H         1 MK61        0.0000
     52 H14        -4.4573    0.2030    1.3299 H         1 MK61        0.0000
     53 H192       -5.6910   -1.1963    0.3836 H         1 MK61        0.0000
     54 H193       -6.4992    0.2985    0.9133 H         1 MK61        0.0000
     55 H202       -8.2952   -0.0817   -0.7543 H         1 MK61        0.0000
     56 H203       -7.4869   -1.5764   -1.2844 H         1 MK61        0.0000
     57 H212       -8.5314   -1.0183    1.5281 H         1 MK61        0.0000
     58 H213       -7.7227   -2.5131    0.9988 H         1 MK61        0.0000
     59 H221      -11.5451   -3.6339    1.3175 H         1 MK61        0.0000
     60 H222      -10.6862   -2.4810    2.3667 H         1 MK61        0.0000
     61 H223       -9.8775   -3.9757    1.8375 H         1 MK61        0.0000
     62 H231       -2.8825    0.8905    2.9504 H         1 MK61        0.0000
     63 H232       -1.6073    2.0630    2.5420 H         1 MK61        0.0000
     64 H233       -1.3600    0.3304    2.2177 H         1 MK61        0.0000
     65 H181       -2.1807    2.6729   -3.4219 H         1 MK61        0.0000
     66 H182       -1.9785    4.0270   -2.2846 H         1 MK61        0.0000
     67 H183       -0.7492    2.7423   -2.3663 H         1 MK61        0.0000
@<TRIPOS>BOND
     1   17   18 2
     2   18   19 1
     3   16   17 1
     4   19   20 2
     5   15   16 1
     6   16   21 2
     7   20   21 1
     8   20   22 1
     9   23   24 1
    10   14   15 1
    11   22   23 2
    12   22   28 1
    13   23   25 1
    14   10   14 1
    15   28   29 1
    16   27   28 2
    17    1    2 2
    18    9   10 2
    19   10   11 1
    20   25   26 2
    21    8    9 1
    22   11   12 2
    23   26   27 1
    24    7    8 2
    25   26   30 1
    26    2    4 1
    27    4    6 1
    28    4    5 1
    29    2    3 1
    30    7   12 1
    31   12   13 1
    32    6    7 1
    33   30   31 1
    34    5   13 1
    35    5    6 1
    36   31   32 1
    37   32   33 1
    38   33   34 1
    39   34   36 2
    40   34   35 2
    41   34   37 1
    42   38    4 1
    43   39    5 1
    44   40    6 1
    45   41    8 1
    46   42   11 1
    47   43   13 1
    48   44   13 1
    49   45   15 1
    50   46   15 1
    51   47   17 1
    52   48   18 1
    53   49   19 1
    54   50   21 1
    55   51   25 1
    56   52   27 1
    57   53   31 1
    58   54   31 1
    59   55   32 1
    60   56   32 1
    61   57   33 1
    62   58   33 1
    63   59   37 1
    64   60   37 1
    65   61   37 1
    66   62   29 1
    67   63   29 1
    68   64   29 1
    69   65   24 1
    70   66   24 1
    71   67   24 1
@<TRIPOS>SUBSTRUCTURE
     1 MK61        1 RESIDUE           4 A     MK6     0 ROOT
