# created with PyMOL 2.3.5
@<TRIPOS>MOLECULE
EFD
77 81 1 0 0
SMALL
USER_CHARGES


@<TRIPOS>ATOM
      1 C10        -0.8130    3.6260    1.6410 C.3       1 EFD1        0.0000
      2 C11        -1.3180    1.2160    2.2140 C.3       1 EFD1        0.0000
      3 C01        -2.9610    4.1610   -0.9960 C.2       1 EFD1        0.0000
      4 C02        -2.9440    5.1910   -1.9130 C.2       1 EFD1        0.0000
      5 C03        -1.8810    5.3270   -2.7880 C.2       1 EFD1        0.0000
      6 C04        -0.8270    4.4330   -2.7510 C.2       1 EFD1        0.0000
      7 C05        -0.8290    3.3950   -1.8370 C.2       1 EFD1        0.0000
      8 C06        -1.9020    3.2530   -0.9500 C.2       1 EFD1        0.0000
      9 C07        -1.9130    2.1480    0.0300 C.2       1 EFD1        0.0000
     10 O08        -2.4140    1.0800   -0.2650 O.2       1 EFD1        0.0000
     11 N09        -1.3680    2.3230    1.2500 N.pl3     1 EFD1        0.0000
     12 C12         0.6270    3.4240    2.1230 C.3       1 EFD1        0.0000
     13 C13         0.6460    2.3730    3.2350 C.3       1 EFD1        0.0000
     14 C14         0.1280    1.0410    2.6880 C.3       1 EFD1        0.0000
     15 C15        -1.7900   -0.0540    1.5530 C.2       1 EFD1        0.0000
     16 C16        -0.8830   -1.0540    1.2530 C.2       1 EFD1        0.0000
     17 C17        -1.3130   -2.2190    0.6480 C.2       1 EFD1        0.0000
     18 C18        -2.6570   -2.3850    0.3410 C.2       1 EFD1        0.0000
     19 C19        -3.5660   -1.3790    0.6450 C.2       1 EFD1        0.0000
     20 C20        -3.1300   -0.2190    1.2550 C.2       1 EFD1        0.0000
     21 C21        -4.1180    4.0200   -0.0400 C.3       1 EFD1        0.0000
     22 F22         0.2010    2.5220   -1.8010 F         1 EFD1        0.0000
     23 C23         0.9880    0.6030    1.5310 C.2       1 EFD1        0.0000
     24 N24        -3.0950   -3.5620   -0.2710 N.pl3     1 EFD1        0.0000
     25 C25        -4.5130   -3.7360   -0.5940 C.3       1 EFD1        0.0000
     26 C26        -5.2590   -4.3440    0.6120 C.3       1 EFD1        0.0000
     27 C27        -6.2920   -5.3060   -0.0250 C.3       1 EFD1        0.0000
     28 C28        -5.5070   -5.9110   -1.2150 C.3       1 EFD1        0.0000
     29 C29        -4.6710   -4.7330   -1.7560 C.3       1 EFD1        0.0000
     30 O30         0.6870    0.9180    0.3990 O.2       1 EFD1        0.0000
     31 N31         2.0910   -0.1380    1.7540 N.pl3     1 EFD1        0.0000
     32 C32         2.8400   -0.6200    0.6740 C.2       1 EFD1        0.0000
     33 C33         4.2170   -0.7590    0.7900 C.2       1 EFD1        0.0000
     34 C34         4.9540   -1.2350   -0.2770 C.2       1 EFD1        0.0000
     35 C35         4.3210   -1.5720   -1.4600 C.2       1 EFD1        0.0000
     36 C36         2.9510   -1.4340   -1.5790 C.2       1 EFD1        0.0000
     37 C37         2.2080   -0.9650   -0.5120 C.2       1 EFD1        0.0000
     38 C38         5.1280   -2.0900   -2.6230 C.3       1 EFD1        0.0000
     39 C39         6.4480   -1.3860   -0.1530 C.3       1 EFD1        0.0000
     40 F40         7.0790   -0.5880   -1.1140 F         1 EFD1        0.0000
     41 F41         6.8520   -0.9840    1.1250 F         1 EFD1        0.0000
     42 F42         6.7990   -2.7250   -0.3540 F         1 EFD1        0.0000
     43 H1         -0.8210    4.2990    0.7840 H         1 EFD1        0.0000
     44 H2         -1.4120    4.0510    2.4470 H         1 EFD1        0.0000
     45 H3         -1.9580    1.4440    3.0660 H         1 EFD1        0.0000
     46 H4         -3.7640    5.8940   -1.9480 H         1 EFD1        0.0000
     47 H5         -1.8740    6.1350   -3.5040 H         1 EFD1        0.0000
     48 H6         -0.0010    4.5440   -3.4370 H         1 EFD1        0.0000
     49 H7          1.2440    3.0850    1.2910 H         1 EFD1        0.0000
     50 H8          1.0180    4.3670    2.5060 H         1 EFD1        0.0000
     51 H9          1.6660    2.2450    3.5960 H         1 EFD1        0.0000
     52 H10         0.0090    2.7010    4.0560 H         1 EFD1        0.0000
     53 H11         0.1640    0.2870    3.4750 H         1 EFD1        0.0000
     54 H12         0.1620   -0.9230    1.4910 H         1 EFD1        0.0000
     55 H13        -0.6040   -2.9990    0.4130 H         1 EFD1        0.0000
     56 H14        -4.6110   -1.5060    0.4070 H         1 EFD1        0.0000
     57 H15        -3.8370    0.5620    1.4950 H         1 EFD1        0.0000
     58 H16        -3.9110    4.5870    0.8670 H         1 EFD1        0.0000
     59 H17        -5.0250    4.4030   -0.5090 H         1 EFD1        0.0000
     60 H18        -4.2550    2.9680    0.2110 H         1 EFD1        0.0000
     61 H19        -2.4590   -4.2640   -0.4830 H         1 EFD1        0.0000
     62 H20        -4.9550   -2.7770   -0.8620 H         1 EFD1        0.0000
     63 H21        -4.5670   -4.8950    1.2500 H         1 EFD1        0.0000
     64 H22        -5.7640   -3.5640    1.1810 H         1 EFD1        0.0000
     65 H23        -6.5830   -6.0830    0.6810 H         1 EFD1        0.0000
     66 H24        -7.1650   -4.7560   -0.3780 H         1 EFD1        0.0000
     67 H25        -4.8560   -6.7150   -0.8730 H         1 EFD1        0.0000
     68 H26        -6.1930   -6.2770   -1.9790 H         1 EFD1        0.0000
     69 H27        -5.1900   -4.2570   -2.5880 H         1 EFD1        0.0000
     70 H28        -3.6920   -5.0870   -2.0790 H         1 EFD1        0.0000
     71 H29         2.3660   -0.3380    2.6620 H         1 EFD1        0.0000
     72 H30         4.7120   -0.4950    1.7130 H         1 EFD1        0.0000
     73 H31         2.4600   -1.6980   -2.5040 H         1 EFD1        0.0000
     74 H32         1.1360   -0.8630   -0.6040 H         1 EFD1        0.0000
     75 H33         5.1970   -3.1760   -2.5620 H         1 EFD1        0.0000
     76 H34         4.6410   -1.8090   -3.5570 H         1 EFD1        0.0000
     77 H35         6.1290   -1.6600   -2.5910 H         1 EFD1        0.0000
@<TRIPOS>BOND
     1    4    5 2
     2    3    4 1
     3    5    6 1
     4    3   21 1
     5    3    8 2
     6    6    7 2
     7    7    8 1
     8    8    9 1
     9    7   22 1
    10   16   17 2
    11   17   18 1
    12    9   10 2
    13    9   11 1
    14    1   11 1
    15    1   12 1
    16   15   16 1
    17   18   24 1
    18   24   25 1
    19    2   11 1
    20   18   19 2
    21   25   26 1
    22   26   27 1
    23   12   13 1
    24   25   29 1
    25    2   15 1
    26   15   20 2
    27   27   28 1
    28    2   14 1
    29   19   20 1
    30   13   14 1
    31   28   29 1
    32   14   23 1
    33   23   31 1
    34   23   30 2
    35   31   32 1
    36   32   37 2
    37   32   33 1
    38   36   37 1
    39   33   34 2
    40   35   36 2
    41   34   35 1
    42   34   39 1
    43   39   42 1
    44   35   38 1
    45   39   41 1
    46   39   40 1
    47    1   43 1
    48    1   44 1
    49    2   45 1
    50    4   46 1
    51    5   47 1
    52    6   48 1
    53   12   49 1
    54   12   50 1
    55   13   51 1
    56   13   52 1
    57   14   53 1
    58   16   54 1
    59   17   55 1
    60   19   56 1
    61   20   57 1
    62   21   58 1
    63   21   59 1
    64   21   60 1
    65   24   61 1
    66   25   62 1
    67   26   63 1
    68   26   64 1
    69   27   65 1
    70   27   66 1
    71   28   67 1
    72   28   68 1
    73   29   69 1
    74   29   70 1
    75   31   71 1
    76   33   72 1
    77   36   73 1
    78   37   74 1
    79   38   75 1
    80   38   76 1
    81   38   77 1
@<TRIPOS>SUBSTRUCTURE
     1 EFD1        1 RESIDUE           4 A     EFD     0 ROOT
