# created with PyMOL 2.3.5
@<TRIPOS>MOLECULE
6XQ
90 95 1 0 0
SMALL
USER_CHARGES


@<TRIPOS>ATOM
      1 O1          6.5210    1.1630    2.2430 O.co2     1 6XQ1        0.0000
      2 C7          6.5080   -0.1380   -0.3150 C.2       1 6XQ1        0.0000
      3 O2          8.2750    0.5040    3.4140 O.3       1 6XQ1        0.0000
      4 C6          7.6780    0.8150    2.2530 C.2       1 6XQ1        0.0000
      5 C1          9.4340    2.1080   -1.5820 C.3       1 6XQ1        0.0000
      6 N1         -1.7850   -1.8890   -0.1040 N.pl3     1 6XQ1        0.0000
      7 C5          8.4500    0.7290    0.9610 C.3       1 6XQ1        0.0000
      8 C4          7.5060    0.9870   -0.2150 C.3       1 6XQ1        0.0000
      9 C3          8.3160    1.0660   -1.5110 C.3       1 6XQ1        0.0000
     10 C2          8.1430    2.3160   -2.3760 C.3       1 6XQ1        0.0000
     11 O3         -2.4470    0.4880    1.0000 O.2       1 6XQ1        0.0000
     12 C24        -3.4890    0.3350    0.3900 C.2       1 6XQ1        0.0000
     13 N2         -4.1480    1.4040   -0.0970 N.pl3     1 6XQ1        0.0000
     14 C31        -5.5730    1.3000   -0.4230 C.3       1 6XQ1        0.0000
     15 C32        -6.4030    1.8350    0.7460 C.3       1 6XQ1        0.0000
     16 C35        -5.9820    3.2730    1.0550 C.3       1 6XQ1        0.0000
     17 C34        -7.8860    1.8070    0.3720 C.3       1 6XQ1        0.0000
     18 C33        -6.1710    0.9590    1.9790 C.3       1 6XQ1        0.0000
     19 C25        -3.4750    2.6080   -0.2920 C.2       1 6XQ1        0.0000
     20 N3         -4.1620    3.7090   -0.5540 N.2       1 6XQ1        0.0000
     21 C29        -3.5650    4.8700   -0.7400 C.2       1 6XQ1        0.0000
     22 C30        -4.3930    6.0940   -1.0360 C.3       1 6XQ1        0.0000
     23 C28        -2.1900    4.9790   -0.6650 C.2       1 6XQ1        0.0000
     24 C27        -1.4320    3.8480   -0.3920 C.2       1 6XQ1        0.0000
     25 C26        -2.0880    2.6450   -0.2020 C.2       1 6XQ1        0.0000
     26 C23        -4.0280   -1.0190    0.1850 C.2       1 6XQ1        0.0000
     27 C22        -5.4090   -1.2390    0.2230 C.2       1 6XQ1        0.0000
     28 C21        -5.9080   -2.4950    0.0320 C.2       1 6XQ1        0.0000
     29 C20        -5.0500   -3.5660   -0.2030 C.2       1 6XQ1        0.0000
     30 O4         -5.5590   -4.8100   -0.3920 O.3       1 6XQ1        0.0000
     31 C36        -6.9810   -4.9440   -0.3360 C.3       1 6XQ1        0.0000
     32 C19        -3.6790   -3.3680   -0.2450 C.2       1 6XQ1        0.0000
     33 C18        -3.1580   -2.0960   -0.0580 C.2       1 6XQ1        0.0000
     34 C17        -1.2390   -2.2720   -1.4120 C.3       1 6XQ1        0.0000
     35 C16         0.2430   -1.8970   -1.4770 C.3       1 6XQ1        0.0000
     36 C37        -1.1090   -2.6050    0.9850 C.3       1 6XQ1        0.0000
     37 C38         0.3780   -2.2400    0.9910 C.3       1 6XQ1        0.0000
     38 C15         0.9970   -2.6180   -0.3570 C.3       1 6XQ1        0.0000
     39 C14         2.4470   -2.2060   -0.3780 C.2       1 6XQ1        0.0000
     40 O5          2.8900   -0.9460   -0.2300 O.3       1 6XQ1        0.0000
     41 C9          4.2360   -0.8990   -0.2960 C.2       1 6XQ1        0.0000
     42 C8          5.1610    0.1330   -0.2050 C.2       1 6XQ1        0.0000
     43 C13         3.4790   -3.0430   -0.5480 C.2       1 6XQ1        0.0000
     44 C10         4.6900   -2.2130   -0.4990 C.2       1 6XQ1        0.0000
     45 C11         6.0540   -2.4730   -0.6210 C.2       1 6XQ1        0.0000
     46 C12         6.9550   -1.4350   -0.5210 C.2       1 6XQ1        0.0000
     47 H12        10.3628    1.8759   -2.1032 H         1 6XQ1        0.0000
     48 H13         9.5417    2.7353   -0.6971 H         1 6XQ1        0.0000
     49 H52         9.2429    1.4769    0.9612 H         1 6XQ1        0.0000
     50 H53         8.8876   -0.2646    0.8646 H         1 6XQ1        0.0000
     51 H4          6.9786    1.9279   -0.0581 H         1 6XQ1        0.0000
     52 H3          8.4886    0.1273   -2.0375 H         1 6XQ1        0.0000
     53 H22         7.4386    3.0922   -2.0770 H         1 6XQ1        0.0000
     54 H23         8.2267    2.1530   -3.4505 H         1 6XQ1        0.0000
     55 H312       -5.7849    1.8860   -1.3173 H         1 6XQ1        0.0000
     56 H313       -5.8295    0.2560   -0.6032 H         1 6XQ1        0.0000
     57 H28        -1.7094    5.9341   -0.8171 H         1 6XQ1        0.0000
     58 H27        -0.3554    3.9062   -0.3295 H         1 6XQ1        0.0000
     59 H26        -1.5298    1.7459    0.0135 H         1 6XQ1        0.0000
     60 H221       -6.0815   -0.4135    0.4038 H         1 6XQ1        0.0000
     61 H21        -6.9750   -2.6590    0.0634 H         1 6XQ1        0.0000
     62 H19        -3.0172   -4.2027   -0.4230 H         1 6XQ1        0.0000
     63 H172       -1.3476   -3.3478   -1.5498 H         1 6XQ1        0.0000
     64 H173       -1.7811   -1.7483   -2.1994 H         1 6XQ1        0.0000
     65 H162        0.6520   -2.1958   -2.4421 H         1 6XQ1        0.0000
     66 H163        0.3515   -0.8194   -1.3537 H         1 6XQ1        0.0000
     67 H372       -1.5561   -2.3222    1.9380 H         1 6XQ1        0.0000
     68 H373       -1.2188   -3.6793    0.8367 H         1 6XQ1        0.0000
     69 H382        0.4890   -1.1681    1.1548 H         1 6XQ1        0.0000
     70 H383        0.8831   -2.7843    1.7889 H         1 6XQ1        0.0000
     71 H15         0.9224   -3.6956   -0.5027 H         1 6XQ1        0.0000
     72 H8          4.8250    1.1474   -0.0481 H         1 6XQ1        0.0000
     73 H131        3.4305   -4.1123   -0.6920 H         1 6XQ1        0.0000
     74 H11         6.4023   -3.4808   -0.7927 H         1 6XQ1        0.0000
     75 H121        8.0137   -1.6321   -0.6034 H         1 6XQ1        0.0000
     76 H301       -5.4485    5.8229   -1.0571 H         1 6XQ1        0.0000
     77 H302       -4.1037    6.5026   -2.0042 H         1 6XQ1        0.0000
     78 H303       -4.2255    6.8421   -0.2611 H         1 6XQ1        0.0000
     79 H361       -7.2551   -5.9857   -0.5027 H         1 6XQ1        0.0000
     80 H362       -7.3372   -4.6272    0.6442 H         1 6XQ1        0.0000
     81 H363       -7.4353   -4.3210   -1.1064 H         1 6XQ1        0.0000
     82 H331       -6.3867    1.5339    2.8796 H         1 6XQ1        0.0000
     83 H332       -5.1325    0.6284    1.9993 H         1 6XQ1        0.0000
     84 H333       -6.8281    0.0904    1.9364 H         1 6XQ1        0.0000
     85 H351       -6.5928    3.6641    1.8687 H         1 6XQ1        0.0000
     86 H352       -4.9325    3.2889    1.3488 H         1 6XQ1        0.0000
     87 H353       -6.1203    3.8907    0.1676 H         1 6XQ1        0.0000
     88 H341       -8.4783    2.1879    1.2040 H         1 6XQ1        0.0000
     89 H342       -8.0507    2.4308   -0.5065 H         1 6XQ1        0.0000
     90 H343       -8.1858    0.7825    0.1516 H         1 6XQ1        0.0000
@<TRIPOS>BOND
     1    1    4 2
     2    5    9 1
     3    5   10 1
     4    9   10 1
     5    8    9 1
     6    4    7 1
     7    3    4 1
     8    7    8 1
     9    2    8 1
    10    2   46 2
    11   45   46 1
    12    2   42 1
    13   44   45 2
    14   41   42 2
    15   41   44 1
    16   43   44 1
    17   40   41 1
    18   39   43 2
    19   39   40 1
    20   38   39 1
    21   21   22 1
    22   37   38 1
    23   35   38 1
    24   36   37 1
    25   34   35 1
    26   21   23 2
    27   20   21 1
    28   23   24 1
    29   19   20 2
    30    6   36 1
    31    6   34 1
    32   15   18 1
    33   15   17 1
    34    6   33 1
    35   24   25 2
    36   19   25 1
    37   13   19 1
    38   15   16 1
    39   14   15 1
    40   12   13 1
    41   13   14 1
    42   11   12 2
    43   12   26 1
    44   26   33 2
    45   32   33 1
    46   26   27 1
    47   29   32 2
    48   27   28 2
    49   28   29 1
    50   29   30 1
    51   30   31 1
    52   47    5 1
    53   48    5 1
    54   49    7 1
    55   50    7 1
    56   51    8 1
    57   52    9 1
    58   53   10 1
    59   54   10 1
    60   55   14 1
    61   56   14 1
    62   57   23 1
    63   58   24 1
    64   59   25 1
    65   60   27 1
    66   61   28 1
    67   62   32 1
    68   63   34 1
    69   64   34 1
    70   65   35 1
    71   66   35 1
    72   67   36 1
    73   68   36 1
    74   69   37 1
    75   70   37 1
    76   71   38 1
    77   72   42 1
    78   73   43 1
    79   74   45 1
    80   75   46 1
    81   76   22 1
    82   77   22 1
    83   78   22 1
    84   79   31 1
    85   80   31 1
    86   81   31 1
    87   82   18 1
    88   83   18 1
    89   84   18 1
    90   85   16 1
    91   86   16 1
    92   87   16 1
    93   88   17 1
    94   89   17 1
    95   90   17 1
@<TRIPOS>SUBSTRUCTURE
     1 6XQ1        1 RESIDUE           4 A     6XQ     0 ROOT
