# created with PyMOL 2.3.5
@<TRIPOS>MOLECULE
G90
52 54 1                 
SMALL
USER_CHARGES
@<TRIPOS>ATOM
1	  N1	-6.689	-1.922	2.057	N.1	1	G900	0.000	
2	 C12	-6.603	-1.047	1.338	C.1	1	G900	0.000	
3	  C7	-6.494	0.056	0.432	C.2	1	G900	0.000	
4	  C6	-5.244	0.422	-0.087	C.2	1	G900	0.000	
5	 C11	-5.150	1.492	-0.964	C.2	1	G900	0.000	
6	 C10	-6.285	2.192	-1.325	C.2	1	G900	0.000	
7	  C9	-7.521	1.834	-0.816	C.2	1	G900	0.000	
8	  C8	-7.634	0.770	0.054	C.2	1	G900	0.000	
9	  O2	-4.130	-0.267	0.269	O.3	1	G900	0.000	
10	  C5	-2.892	0.164	-0.299	C.3	1	G900	0.000	
11	  C4	-1.758	-0.726	0.216	C.3	1	G900	0.000	
12	  O1	-1.947	-2.060	-0.259	O.3	1	G900	0.000	
13	  C3	-0.418	-0.189	-0.292	C.3	1	G900	0.000	
14	   N	0.670	-1.043	0.201	N.3	1	G900	0.000	
15	  CA	1.975	-0.558	-0.268	C.3	1	G900	0.000	
16	  C1	2.001	-0.564	-1.798	C.3	1	G900	0.000	
17	  C2	2.201	0.868	0.240	C.3	1	G900	0.000	
18	  CB	3.081	-1.471	0.265	C.3	1	G900	0.000	
19	  CG	4.419	-0.972	-0.216	C.2	1	G900	0.000	
20	 CD2	5.240	0.065	0.413	C.2	1	G900	0.000	
21	 CE3	5.092	0.865	1.547	C.2	1	G900	0.000	
22	 CZ3	6.066	1.765	1.875	C.2	1	G900	0.000	
23	 CH2	7.204	1.890	1.089	C.2	1	G900	0.000	
24	 CZ2	7.371	1.110	-0.034	C.2	1	G900	0.000	
25	 CE2	6.391	0.188	-0.387	C.2	1	G900	0.000	
26	 NE1	6.265	-0.713	-1.421	N.pl3	1	G900	0.000	
27	 CD1	5.088	-1.399	-1.299	C.2	1	G900	0.000	
28	  H8	-8.601	0.491	0.446	 H	1	G900	0.000	
29	 H11	-4.189	1.777	-1.365	 H	1	G900	0.000	
30	 H10	-6.206	3.025	-2.008	 H	1	G900	0.000	
31	  H9	-8.403	2.388	-1.104	 H	1	G900	0.000	
32	H51C	-2.946	0.092	-1.385	 H	1	G900	0.000	
33	H52C	-2.700	1.198	-0.012	 H	1	G900	0.000	
34	  H4	-1.760	-0.724	1.306	 H	1	G900	0.000	
35	  H1	-1.956	-2.138	-1.222	 H	1	G900	0.000	
36	H31C	-0.416	-0.191	-1.383	 H	1	G900	0.000	
37	H32C	-0.274	0.829	0.069	 H	1	G900	0.000	
38	   H	0.650	-1.110	1.208	 H	1	G900	0.000	
39	H11C	1.213	0.086	-2.178	 H	1	G900	0.000	
40	H12C	2.969	-0.204	-2.146	 H	1	G900	0.000	
41	H13C	1.840	-1.580	-2.160	 H	1	G900	0.000	
42	H21C	2.182	0.872	1.330	 H	1	G900	0.000	
43	H22C	3.169	1.228	-0.108	 H	1	G900	0.000	
44	H23C	1.413	1.518	-0.140	 H	1	G900	0.000	
45	HB1C	3.062	-1.466	1.355	 H	1	G900	0.000	
46	HB2C	2.920	-2.486	-0.097	 H	1	G900	0.000	
47	 HD1	4.745	-2.168	-1.976	 H	1	G900	0.000	
48	 HE3	4.209	0.774	2.163	 H	1	G900	0.000	
49	 HZ3	5.951	2.384	2.753	 H	1	G900	0.000	
50	 HH2	7.965	2.606	1.361	 H	1	G900	0.000	
51	 HZ2	8.259	1.216	-0.639	 H	1	G900	0.000	
52	 HE1	6.916	-0.844	-2.128	 H	1	G900	0.000	
@<TRIPOS>BOND
1 1 2 3
2 2 3 1
3 3 4 1
4 3 8 2
5 4 5 2
6 4 9 1
7 5 6 1
8 6 7 2
9 7 8 1
10 9 10 1
11 10 11 1
12 11 12 1
13 11 13 1
14 13 14 1
15 14 15 1
16 15 16 1
17 15 17 1
18 15 18 1
19 18 19 1
20 19 20 1
21 19 27 2
22 20 21 1
23 20 25 2
24 21 22 2
25 22 23 1
26 23 24 2
27 24 25 1
28 25 26 1
29 26 27 1
30 8 28 1
31 5 29 1
32 6 30 1
33 7 31 1
34 10 32 1
35 10 33 1
36 11 34 1
37 12 35 1
38 13 36 1
39 13 37 1
40 14 38 1
41 16 39 1
42 16 40 1
43 16 41 1
44 17 42 1
45 17 43 1
46 17 44 1
47 18 45 1
48 18 46 1
49 27 47 1
50 21 48 1
51 22 49 1
52 23 50 1
53 24 51 1
54 26 52 1
@<TRIPOS>SUBSTRUCTURE
1	G900	1	GROUP	1 ****	G90
