@<TRIPOS>MOLECULE
64Z
11 10 1 0 0
SMALL
NO_CHARGES


@<TRIPOS>ATOM
      1 C1          8.5150   49.4340   33.6950 C.2       1 64Z429      0.0000
      2 C2          7.2660   49.1380   34.5190 C.3       1 64Z429      0.0000
      3 C3          6.1500   48.4330   33.7490 C.3       1 64Z429      0.0000
      4 C4          5.4120   47.4860   34.6930 C.3       1 64Z429      0.0000
      5 C5          6.1950   46.1820   34.8660 C.2       1 64Z429      0.0000
      6 C6          6.7710   45.4670   33.6450 C.3       1 64Z429      0.0000
      7 C7          7.5190   44.1680   33.9530 C.3       1 64Z429      0.0000
      8 C8          6.3830   45.5780   36.2610 C.2       1 64Z429      0.0000
      9 C9          8.5750   49.0340   32.2320 C.2       1 64Z429      0.0000
     10 O           8.1780   43.7060   32.7730 O.3       1 64Z429      0.0000
     11 C           9.7110   50.1240   34.3300 C.3       1 64Z429      0.0000
@<TRIPOS>BOND
     1    1    2 1
     2    1    9 2
     3    1   11 1
     4    2    3 1
     5    3    4 1
     6    4    5 1
     7    5    6 1
     8    5    8 2
     9    6    7 1
    10    7   10 1
@<TRIPOS>SUBSTRUCTURE
     1 64Z429      1 RESIDUE           4 A     64Z     0 ROOT
