# created with PyMOL 2.3.5
@<TRIPOS>MOLECULE
QXV
21 20 1                 
SMALL
USER_CHARGES
@<TRIPOS>ATOM
1	   N	-1.256	1.812	0.150	N.3	1	QXV0	0.000	
2	  CA	-1.238	0.383	0.489	C.3	1	QXV0	0.000	
3	   C	-2.515	-0.262	0.016	C.2	1	QXV0	0.000	
4	   O	-3.183	0.275	-0.842	O.2	1	QXV0	0.000	
5	  CB	-0.044	-0.288	-0.193	C.3	1	QXV0	0.000	
6	  CG	1.256	0.281	0.379	C.3	1	QXV0	0.000	
7	  SD	2.672	-0.515	-0.431	S.3	1	QXV0	0.000	
8	  CE	4.096	0.277	0.367	C.3	1	QXV0	0.000	
9	 NXT	-2.914	-1.435	0.546	N.pl3	1	QXV0	0.000	
10	  H1	-1.336	1.946	-0.847	 H	1	QXV0	0.000	
11	  H2	-1.997	2.291	0.640	 H	1	QXV0	0.000	
12	  H4	-1.151	0.268	1.570	 H	1	QXV0	0.000	
13	  H5	-0.080	-1.362	-0.015	 H	1	QXV0	0.000	
14	  H6	-0.084	-0.096	-1.266	 H	1	QXV0	0.000	
15	  H7	1.293	1.356	0.200	 H	1	QXV0	0.000	
16	  H8	1.296	0.089	1.451	 H	1	QXV0	0.000	
17	  H9	4.061	1.352	0.188	 H	1	QXV0	0.000	
18	 H10	4.064	0.086	1.439	 H	1	QXV0	0.000	
19	 H11	5.017	-0.130	-0.048	 H	1	QXV0	0.000	
20	 H12	-2.379	-1.864	1.233	 H	1	QXV0	0.000	
21	 H13	-3.736	-1.850	0.242	 H	1	QXV0	0.000	
@<TRIPOS>BOND
1 1 2 1
2 2 3 1
3 2 5 1
4 3 4 2
5 3 9 1
6 5 6 1
7 6 7 1
8 7 8 1
9 1 10 1
10 1 11 1
11 2 12 1
12 5 13 1
13 5 14 1
14 6 15 1
15 6 16 1
16 8 17 1
17 8 18 1
18 8 19 1
19 9 20 1
20 9 21 1
@<TRIPOS>SUBSTRUCTURE
1	QXV0	1	GROUP	1 ****	QXV
