@<TRIPOS>MOLECULE
FN0
23 24 1 0 0
SMALL
NO_CHARGES


@<TRIPOS>ATOM
      1 C1        158.1820  160.9410  131.3550 C.3       1 FN0867      0.0000
      2 O1        160.2080  160.5970  129.1220 O.3       1 FN0867      0.0000
      3 O2        161.1680  162.8410  126.6910 O.3       1 FN0867      0.0000
      4 C2        158.9070  162.0470  130.5950 C.ar      1 FN0867      0.0000
      5 C3        159.1250  165.8730  130.5110 C.3       1 FN0867      0.0000
      6 C4        159.3390  164.4520  130.2100 C.ar      1 FN0867      0.0000
      7 C5        160.4780  162.8370  128.9140 C.ar      1 FN0867      0.0000
      8 C6        159.8210  161.8270  129.5960 C.ar      1 FN0867      0.0000
      9 C7        161.3900  162.2200  127.8910 C.3       1 FN0867      0.0000
     10 C8        158.6980  163.4100  130.8750 C.ar      1 FN0867      0.0000
     11 C9        160.2490  164.1470  129.2150 C.ar      1 FN0867      0.0000
     12 C10       159.0650  160.3130  132.4320 C.3       1 FN0867      0.0000
     13 C11       157.7670  159.7940  130.4370 C.3       1 FN0867      0.0000
     14 C12       156.9170  161.4140  132.0560 C.3       1 FN0867      0.0000
     15 C13       160.9450  160.7730  128.0060 C.2       1 FN0867      0.0000
     16 C14       160.3900  166.4870  131.0630 C.3       1 FN0867      0.0000
     17 C15       158.0190  166.1380  131.5480 C.3       1 FN0867      0.0000
     18 C16       158.7500  166.6830  129.2760 C.3       1 FN0867      0.0000
     19 C17       162.9200  162.1460  128.1300 C.3       1 FN0867      0.0000
     20 F1        163.5320  163.2490  127.7920 F         1 FN0867      0.0000
     21 F2        163.5020  161.1510  127.4790 F         1 FN0867      0.0000
     22 F3        163.2420  161.9270  129.4140 F         1 FN0867      0.0000
     23 O3        160.9050  159.9080  127.0960 O.2       1 FN0867      0.0000
@<TRIPOS>BOND
     1    1    4 1
     2    1   12 1
     3    1   13 1
     4    1   14 1
     5    2    8 1
     6    2   15 1
     7    3    9 1
     8    4    8 ar
     9    4   10 ar
    10    5    6 1
    11    5   16 1
    12    5   17 1
    13    5   18 1
    14    6   10 ar
    15    6   11 ar
    16    7    8 ar
    17    7    9 1
    18    7   11 ar
    19    9   15 1
    20    9   19 1
    21   15   23 2
    22   19   20 1
    23   19   21 1
    24   19   22 1
@<TRIPOS>SUBSTRUCTURE
     1 FN0867      1 RESIDUE           4 D     FN0     0 ROOT
