# created with PyMOL 2.3.5
@<TRIPOS>MOLECULE
D7V
42 44 1                 
SMALL
USER_CHARGES
@<TRIPOS>ATOM
1	  C1	4.499	0.201	0.201	C.3	1	D7V0	0.000	
2	  N1	4.312	-1.104	-0.447	N.3	1	D7V0	0.000	
3	  O1	-1.770	1.641	-1.288	O.3	1	D7V0	0.000	
4	  C2	5.321	-2.068	0.010	C.3	1	D7V0	0.000	
5	  C3	2.954	-1.615	-0.219	C.3	1	D7V0	0.000	
6	  C4	1.942	-0.710	-0.924	C.3	1	D7V0	0.000	
7	  C5	0.549	-1.234	-0.690	C.2	1	D7V0	0.000	
8	  C6	-0.387	-0.435	-0.165	C.2	1	D7V0	0.000	
9	  C7	-1.754	-0.961	0.062	C.2	1	D7V0	0.000	
10	  C8	-1.841	-2.252	0.604	C.2	1	D7V0	0.000	
11	  C9	-3.065	-2.832	0.848	C.2	1	D7V0	0.000	
12	 C10	-4.220	-2.130	0.554	C.2	1	D7V0	0.000	
13	 C11	-4.140	-0.862	0.023	C.2	1	D7V0	0.000	
14	 C12	-2.908	-0.257	-0.229	C.2	1	D7V0	0.000	
15	 C13	-2.986	1.135	-0.799	C.3	1	D7V0	0.000	
16	 C14	-0.771	1.965	-0.444	C.2	1	D7V0	0.000	
17	 C15	-0.043	0.964	0.183	C.2	1	D7V0	0.000	
18	 C16	-0.464	3.294	-0.183	C.2	1	D7V0	0.000	
19	 C17	0.546	3.600	0.710	C.2	1	D7V0	0.000	
20	 C18	1.254	2.597	1.349	C.2	1	D7V0	0.000	
21	 C19	0.964	1.270	1.088	C.2	1	D7V0	0.000	
22	  H1	5.488	0.589	-0.042	 H	1	D7V0	0.000	
23	 H1A	3.739	0.896	-0.155	 H	1	D7V0	0.000	
24	 H1B	4.409	0.086	1.281	 H	1	D7V0	0.000	
25	  H2	5.192	-2.252	1.076	 H	1	D7V0	0.000	
26	 H2A	5.203	-3.004	-0.537	 H	1	D7V0	0.000	
27	 H2B	6.317	-1.665	-0.171	 H	1	D7V0	0.000	
28	  H3	2.875	-2.627	-0.616	 H	1	D7V0	0.000	
29	 H3A	2.746	-1.628	0.851	 H	1	D7V0	0.000	
30	  H4	2.021	0.302	-0.527	 H	1	D7V0	0.000	
31	 H4A	2.151	-0.697	-1.994	 H	1	D7V0	0.000	
32	  H5	0.306	-2.255	-0.945	 H	1	D7V0	0.000	
33	  H8	-0.937	-2.797	0.832	 H	1	D7V0	0.000	
34	  H9	-3.123	-3.826	1.265	 H	1	D7V0	0.000	
35	 H10	-5.186	-2.577	0.740	 H	1	D7V0	0.000	
36	 H11	-5.049	-0.324	-0.203	 H	1	D7V0	0.000	
37	 H13	-3.351	1.806	-0.022	 H	1	D7V0	0.000	
38	H13A	-3.710	1.133	-1.614	 H	1	D7V0	0.000	
39	 H16	-1.010	4.085	-0.676	 H	1	D7V0	0.000	
40	 H17	0.785	4.634	0.912	 H	1	D7V0	0.000	
41	 H18	2.034	2.850	2.051	 H	1	D7V0	0.000	
42	 H19	1.513	0.482	1.582	 H	1	D7V0	0.000	
@<TRIPOS>BOND
1 1 2 1
2 2 4 1
3 2 5 1
4 3 15 1
5 3 16 1
6 5 6 1
7 6 7 1
8 7 8 2
9 8 9 1
10 8 17 1
11 9 10 2
12 9 14 1
13 10 11 1
14 11 12 2
15 12 13 1
16 13 14 2
17 14 15 1
18 16 17 2
19 16 18 1
20 17 21 1
21 18 19 2
22 19 20 1
23 20 21 2
24 1 22 1
25 1 23 1
26 1 24 1
27 4 25 1
28 4 26 1
29 4 27 1
30 5 28 1
31 5 29 1
32 6 30 1
33 6 31 1
34 7 32 1
35 10 33 1
36 11 34 1
37 12 35 1
38 13 36 1
39 15 37 1
40 15 38 1
41 18 39 1
42 19 40 1
43 20 41 1
44 21 42 1
@<TRIPOS>SUBSTRUCTURE
1	D7V0	1	GROUP	1 ****	D7V
