# created with PyMOL 2.3.5
@<TRIPOS>MOLECULE
12P
87 86 1                 
SMALL
USER_CHARGES
@<TRIPOS>ATOM
1	 O37	0.857	0.253	15.371	O.3	1	12P0	0.000	
2	 C36	1.476	-0.759	14.576	C.3	1	12P0	0.000	
3	 C35	0.424	-1.422	13.685	C.3	1	12P0	0.000	
4	 O34	-0.164	-0.440	12.831	O.3	1	12P0	0.000	
5	 C33	-1.133	-1.118	12.028	C.3	1	12P0	0.000	
6	 C32	-1.805	-0.117	11.086	C.3	1	12P0	0.000	
7	 O31	-0.818	0.476	10.241	O.3	1	12P0	0.000	
8	 C30	-1.504	1.396	9.388	C.3	1	12P0	0.000	
9	 C29	-0.499	2.071	8.453	C.3	1	12P0	0.000	
10	 O28	0.151	1.079	7.657	O.3	1	12P0	0.000	
11	 C27	1.072	1.768	6.809	C.3	1	12P0	0.000	
12	 C26	1.806	0.757	5.925	C.3	1	12P0	0.000	
13	 O25	0.859	0.049	5.123	O.3	1	12P0	0.000	
14	 C24	1.602	-0.874	4.325	C.3	1	12P0	0.000	
15	 C23	0.641	-1.669	3.438	C.3	1	12P0	0.000	
16	 O22	-0.073	-0.772	2.587	O.3	1	12P0	0.000	
17	 C21	-0.949	-1.570	1.788	C.3	1	12P0	0.000	
18	 C20	-1.749	-0.666	0.848	C.3	1	12P0	0.000	
19	 O19	-0.851	0.052	0.000	O.3	1	12P0	0.000	
20	 C18	-1.654	0.874	-0.848	C.3	1	12P0	0.000	
21	 C17	-0.750	1.674	-1.788	C.3	1	12P0	0.000	
22	 O16	0.020	0.775	-2.587	O.3	1	12P0	0.000	
23	 C15	0.840	1.578	-3.438	C.3	1	12P0	0.000	
24	 C14	1.696	0.672	-4.325	C.3	1	12P0	0.000	
25	 O13	0.846	-0.153	-5.123	O.3	1	12P0	0.000	
26	 C12	1.700	-0.972	-5.925	C.3	1	12P0	0.000	
27	 C11	0.848	-1.885	-6.809	C.3	1	12P0	0.000	
28	 O10	0.018	-1.089	-7.657	O.3	1	12P0	0.000	
29	  C9	-0.748	-1.995	-8.453	C.3	1	12P0	0.000	
30	  C8	-1.663	-1.202	-9.388	C.3	1	12P0	0.000	
31	  O7	-0.870	-0.373	-10.241	O.3	1	12P0	0.000	
32	  C6	-1.777	0.337	-11.086	C.3	1	12P0	0.000	
33	  C5	-0.988	1.248	-12.028	C.3	1	12P0	0.000	
34	  O4	-0.110	0.457	-12.831	O.3	1	12P0	0.000	
35	  C3	0.594	1.360	-13.685	C.3	1	12P0	0.000	
36	  C2	1.557	0.573	-14.576	C.3	1	12P0	0.000	
37	  O1	0.819	-0.356	-15.371	O.3	1	12P0	0.000	
38	 H37	1.552	0.645	15.916	 H	1	12P0	0.000	
39	H361	1.926	-1.508	15.228	 H	1	12P0	0.000	
40	H362	2.249	-0.309	13.952	 H	1	12P0	0.000	
41	H351	-0.348	-1.872	14.309	 H	1	12P0	0.000	
42	H352	0.897	-2.195	13.079	 H	1	12P0	0.000	
43	H331	-1.886	-1.572	12.673	 H	1	12P0	0.000	
44	H332	-0.640	-1.894	11.443	 H	1	12P0	0.000	
45	H321	-2.297	0.658	11.671	 H	1	12P0	0.000	
46	H322	-2.544	-0.634	10.474	 H	1	12P0	0.000	
47	H301	-2.000	2.153	9.996	 H	1	12P0	0.000	
48	H302	-2.246	0.860	8.798	 H	1	12P0	0.000	
49	H291	0.243	2.608	9.043	 H	1	12P0	0.000	
50	H292	-1.022	2.772	7.803	 H	1	12P0	0.000	
51	H271	1.794	2.308	7.420	 H	1	12P0	0.000	
52	H272	0.528	2.473	6.180	 H	1	12P0	0.000	
53	H261	2.349	0.052	6.554	 H	1	12P0	0.000	
54	H262	2.508	1.283	5.278	 H	1	12P0	0.000	
55	H241	2.147	-1.558	4.975	 H	1	12P0	0.000	
56	H242	2.307	-0.327	3.699	 H	1	12P0	0.000	
57	H231	-0.063	-2.216	4.065	 H	1	12P0	0.000	
58	H232	1.208	-2.373	2.829	 H	1	12P0	0.000	
59	H211	-1.633	-2.118	2.435	 H	1	12P0	0.000	
60	H212	-0.361	-2.276	1.200	 H	1	12P0	0.000	
61	H201	-2.336	0.039	1.436	 H	1	12P0	0.000	
62	H202	-2.416	-1.275	0.239	 H	1	12P0	0.000	
63	H181	-2.243	1.560	-0.239	 H	1	12P0	0.000	
64	H182	-2.323	0.245	-1.436	 H	1	12P0	0.000	
65	H171	-0.081	2.303	-1.200	 H	1	12P0	0.000	
66	H172	-1.363	2.301	-2.435	 H	1	12P0	0.000	
67	H151	1.489	2.208	-2.829	 H	1	12P0	0.000	
68	H152	0.207	2.207	-4.065	 H	1	12P0	0.000	
69	H141	2.329	0.043	-3.699	 H	1	12P0	0.000	
70	H142	2.321	1.285	-4.975	 H	1	12P0	0.000	
71	H121	2.333	-1.579	-5.278	 H	1	12P0	0.000	
72	H122	2.325	-0.338	-6.554	 H	1	12P0	0.000	
73	H111	0.223	-2.519	-6.180	 H	1	12P0	0.000	
74	H112	1.499	-2.510	-7.420	 H	1	12P0	0.000	
75	 H91	-1.353	-2.627	-7.803	 H	1	12P0	0.000	
76	 H92	-0.076	-2.618	-9.043	 H	1	12P0	0.000	
77	 H81	-2.335	-0.579	-8.798	 H	1	12P0	0.000	
78	 H82	-2.248	-1.893	-9.996	 H	1	12P0	0.000	
79	 H61	-2.447	0.940	-10.474	 H	1	12P0	0.000	
80	 H62	-2.361	-0.373	-11.671	 H	1	12P0	0.000	
81	 H51	-0.405	1.958	-11.443	 H	1	12P0	0.000	
82	 H52	-1.680	1.790	-12.673	 H	1	12P0	0.000	
83	 H31	1.157	2.069	-13.079	 H	1	12P0	0.000	
84	 H32	-0.117	1.901	-14.309	 H	1	12P0	0.000	
85	 H21	2.270	0.032	-13.952	 H	1	12P0	0.000	
86	 H22	2.095	1.262	-15.228	 H	1	12P0	0.000	
87	 HO1	1.462	-0.830	-15.916	 H	1	12P0	0.000	
@<TRIPOS>BOND
1 1 2 1
2 1 38 1
3 2 3 1
4 2 39 1
5 2 40 1
6 3 4 1
7 3 41 1
8 3 42 1
9 4 5 1
10 5 6 1
11 5 43 1
12 5 44 1
13 6 7 1
14 6 45 1
15 6 46 1
16 7 8 1
17 8 9 1
18 8 47 1
19 8 48 1
20 9 10 1
21 9 49 1
22 9 50 1
23 10 11 1
24 11 12 1
25 11 51 1
26 11 52 1
27 12 13 1
28 12 53 1
29 12 54 1
30 13 14 1
31 14 15 1
32 14 55 1
33 14 56 1
34 15 16 1
35 15 57 1
36 15 58 1
37 16 17 1
38 17 18 1
39 17 59 1
40 17 60 1
41 18 19 1
42 18 61 1
43 18 62 1
44 19 20 1
45 20 21 1
46 20 63 1
47 20 64 1
48 21 22 1
49 21 65 1
50 21 66 1
51 22 23 1
52 23 24 1
53 23 67 1
54 23 68 1
55 24 25 1
56 24 69 1
57 24 70 1
58 25 26 1
59 26 27 1
60 26 71 1
61 26 72 1
62 27 28 1
63 27 73 1
64 27 74 1
65 28 29 1
66 29 30 1
67 29 75 1
68 29 76 1
69 30 31 1
70 30 77 1
71 30 78 1
72 31 32 1
73 32 33 1
74 32 79 1
75 32 80 1
76 33 34 1
77 33 81 1
78 33 82 1
79 34 35 1
80 35 36 1
81 35 83 1
82 35 84 1
83 36 37 1
84 36 85 1
85 36 86 1
86 37 87 1
@<TRIPOS>SUBSTRUCTURE
1	12P0	1	GROUP	1 ****	12P
