@<TRIPOS>MOLECULE
IXO
14 14 1 0 0
SMALL
NO_CHARGES


@<TRIPOS>ATOM
      1 C01       109.4760  141.0280  131.1550 C.3       1 IXO540      0.0000
      2 N02       110.8940  141.3940  130.8700 N.4       1 IXO540      0.0000
      3 C03       111.7890  140.3470  131.4430 C.3       1 IXO540      0.0000
      4 C04       111.1970  142.7000  131.5230 C.3       1 IXO540      0.0000
      5 C05       111.1090  141.4990  129.3780 C.3       1 IXO540      0.0000
      6 C06       112.5150  141.7650  129.0600 C.1       1 IXO540      0.0000
      7 C07       113.6490  141.9800  128.8020 C.1       1 IXO540      0.0000
      8 C08       115.0500  142.2470  128.4830 C.3       1 IXO540      0.0000
      9 O09       115.5470  141.2550  127.5780 O.3       1 IXO540      0.0000
     10 C10       115.8050  141.6590  126.3240 C.ar      1 IXO540      0.0000
     11 N11       116.6890  142.5490  125.9480 N.ar      1 IXO540      0.0000
     12 O12       116.5030  142.7870  124.5550 O.2       1 IXO540      0.0000
     13 C13       115.6590  141.7480  123.9960 C.ar      1 IXO540      0.0000
     14 C14       115.0300  141.0620  125.1910 C.ar      1 IXO540      0.0000
@<TRIPOS>BOND
     1    1    2 1
     2    2    3 1
     3    2    4 1
     4    2    5 1
     5    5    6 1
     6    6    7 3
     7    7    8 1
     8    8    9 1
     9    9   10 1
    10   10   11 ar
    11   10   14 ar
    12   11   12 ar
    13   12   13 ar
    14   13   14 ar
@<TRIPOS>SUBSTRUCTURE
     1 IXO540      1 RESIDUE           4 R     IXO     0 ROOT
