@<TRIPOS>MOLECULE
IXO
14 14 1 0 0
SMALL
NO_CHARGES


@<TRIPOS>ATOM
      1 C01       104.5340  140.8620  131.5620 C.3       1 IXO561      0.0000
      2 N02       105.7650  140.7310  130.8240 N.4       1 IXO561      0.0000
      3 C03       106.0060  141.9820  130.1330 C.3       1 IXO561      0.0000
      4 C04       105.6210  139.6500  129.8720 C.3       1 IXO561      0.0000
      5 C05       106.8150  140.3880  131.7680 C.3       1 IXO561      0.0000
      6 C06       108.1870  140.9200  131.3330 C.1       1 IXO561      0.0000
      7 C07       109.2800  141.2960  131.0680 C.1       1 IXO561      0.0000
      8 C08       110.6960  141.7290  130.7330 C.3       1 IXO561      0.0000
      9 O09       111.1670  140.9180  129.7120 O.3       1 IXO561      0.0000
     10 C10       111.7890  141.6240  128.6810 C.2       1 IXO561      0.0000
     11 N11       111.4190  143.0250  128.4170 N.3       1 IXO561      0.0000
     12 O12       111.7290  143.3880  127.1550 O.3       1 IXO561      0.0000
     13 C13       111.8920  142.0520  126.4000 C.3       1 IXO561      0.0000
     14 C14       112.0850  140.9870  127.5510 C.2       1 IXO561      0.0000
@<TRIPOS>BOND
     1    1    2 1
     2    2    3 1
     3    2    4 1
     4    2    5 1
     5    5    6 1
     6    6    7 3
     7    7    8 1
     8    8    9 1
     9    9   10 1
    10   10   11 1
    11   10   14 2
    12   11   12 1
    13   12   13 1
    14   13   14 1
@<TRIPOS>SUBSTRUCTURE
     1 IXO561      1 RESIDUE           4 R     IXO     0 ROOT
