# created with PyMOL 2.3.5
@<TRIPOS>MOLECULE
0HK
48 52 1 0 0
SMALL
USER_CHARGES


@<TRIPOS>ATOM
      1 C28        -0.3050    0.2850   -0.5550 C.2       1 0HK1        0.0000
      2 O29        -0.5800    0.8840   -1.5670 O.co2     1 0HK1        0.0000
      3 C31        -2.3940    1.1710    0.4000 C.2       1 0HK1        0.0000
      4 C32        -2.0070   -1.2590    0.3270 C.2       1 0HK1        0.0000
      5 C34        -2.3450    2.3490    1.0230 C.2       1 0HK1        0.0000
      6 C35        -3.4140    3.1900    0.7650 C.2       1 0HK1        0.0000
      7 C36        -4.3310    2.6940   -0.0680 C.2       1 0HK1        0.0000
      8 C41        -1.5930   -2.3980    0.8840 C.2       1 0HK1        0.0000
      9 C42        -2.3540   -3.5100    0.5710 C.2       1 0HK1        0.0000
     10 C43        -3.3860   -3.2750   -0.2400 C.2       1 0HK1        0.0000
     11 O10         3.2190   -0.2300    2.1650 O.3       1 0HK1        0.0000
     12 O11         0.9340   -0.1980   -0.3760 O.3       1 0HK1        0.0000
     13 O33        -0.7380    0.1460    1.7990 O.3       1 0HK1        0.0000
     14 S37        -3.8540    1.0790   -0.5760 S.3       1 0HK1        0.0000
     15 S44        -3.4380   -1.5650   -0.6490 S.3       1 0HK1        0.0000
     16 C1          5.1280    0.4470   -1.4930 C.3       1 0HK1        0.0000
     17 C3          3.7410   -1.0760   -0.1830 C.3       1 0HK1        0.0000
     18 C4          2.9050   -1.1170   -1.4730 C.3       1 0HK1        0.0000
     19 C5          1.8910    0.0300   -1.4440 C.3       1 0HK1        0.0000
     20 C6          2.6180    1.3560   -1.2010 C.3       1 0HK1        0.0000
     21 C7          3.4510    1.2260    0.0840 C.3       1 0HK1        0.0000
     22 C8          2.5740    0.5860    1.1850 C.3       1 0HK1        0.0000
     23 C9          2.7650   -0.9350    1.0080 C.3       1 0HK1        0.0000
     24 C12         5.5050    0.1980    0.8800 C.3       1 0HK1        0.0000
     25 C30        -1.3530    0.0860    0.5110 C.3       1 0HK1        0.0000
     26 N2          4.4970    0.2050   -0.1890 N.4       1 0HK1        0.0000
     27 H1         -1.5340    2.6270    1.6790 H         1 0HK1        0.0000
     28 H2         -3.5000    4.1730    1.2040 H         1 0HK1        0.0000
     29 H3         -5.2290    3.2050   -0.3820 H         1 0HK1        0.0000
     30 H4         -0.7290   -2.4480    1.5310 H         1 0HK1        0.0000
     31 H5         -2.1290   -4.4950    0.9550 H         1 0HK1        0.0000
     32 H6         -4.0850   -4.0200   -0.5900 H         1 0HK1        0.0000
     33 H7         -0.2970    0.9850    1.9870 H         1 0HK1        0.0000
     34 H8          5.5970    1.4310   -1.4920 H         1 0HK1        0.0000
     35 H9          5.8850   -0.3150   -1.6780 H         1 0HK1        0.0000
     36 H10         4.3720    0.4060   -2.2760 H         1 0HK1        0.0000
     37 H11         4.3880   -1.9470   -0.0850 H         1 0HK1        0.0000
     38 H12         3.5610   -1.0030   -2.3360 H         1 0HK1        0.0000
     39 H13         2.3790   -2.0700   -1.5370 H         1 0HK1        0.0000
     40 H14         1.3660    0.0750   -2.3980 H         1 0HK1        0.0000
     41 H15         3.2730    1.5940   -2.0390 H         1 0HK1        0.0000
     42 H16         1.8780    2.1480   -1.0780 H         1 0HK1        0.0000
     43 H17         3.8780    2.1790    0.3950 H         1 0HK1        0.0000
     44 H18         1.6140    1.0520    1.4100 H         1 0HK1        0.0000
     45 H19         1.9420   -1.6450    1.0910 H         1 0HK1        0.0000
     46 H20         5.9190    1.1990    0.9960 H         1 0HK1        0.0000
     47 H21         5.0400   -0.1130    1.8150 H         1 0HK1        0.0000
     48 H22         6.3030   -0.4980    0.6220 H         1 0HK1        0.0000
@<TRIPOS>BOND
     1   10   15 1
     2    4   15 1
     3    9   10 2
     4   20   21 1
     5   19   20 1
     6    1    2 2
     7   21   22 1
     8   21   26 1
     9    8    9 1
    10    4    8 2
    11    4   25 1
    12   13   25 1
    13   11   22 1
    14   22   23 1
    15    1   25 1
    16    1   12 1
    17    3   25 1
    18   24   26 1
    19   16   26 1
    20   17   26 1
    21   11   23 1
    22   12   19 1
    23   18   19 1
    24   17   23 1
    25   17   18 1
    26    3   14 1
    27    3    5 2
    28    7   14 1
    29    5    6 1
    30    6    7 2
    31    5   27 1
    32    6   28 1
    33    7   29 1
    34    8   30 1
    35    9   31 1
    36   10   32 1
    37   13   33 1
    38   16   34 1
    39   16   35 1
    40   16   36 1
    41   17   37 1
    42   18   38 1
    43   18   39 1
    44   19   40 1
    45   20   41 1
    46   20   42 1
    47   21   43 1
    48   22   44 1
    49   23   45 1
    50   24   46 1
    51   24   47 1
    52   24   48 1
@<TRIPOS>SUBSTRUCTURE
     1 0HK1        1 RESIDUE           4 A     0HK     0 ROOT
