@<TRIPOS>MOLECULE
ODM
11 10 1 0 0
SMALL
NO_CHARGES


@<TRIPOS>ATOM
      1 CAA         5.9780   52.3410   33.0690 C.3       1 ODM427      0.0000
      2 CAB         6.7420   51.0260   33.0190 C.2       1 ODM427      0.0000
      3 CAE         8.2760   51.0010   33.0950 C.3       1 ODM427      0.0000
      4 CAC         6.0420   49.8790   32.9960 C.2       1 ODM427      0.0000
      5 CAF         6.8810   48.6050   33.0600 C.3       1 ODM427      0.0000
      6 CAG         6.0170   47.4710   33.6210 C.3       1 ODM427      0.0000
      7 CAH         6.9220   46.3690   34.1810 C.3       1 ODM427      0.0000
      8 CAD         6.3260   45.7970   35.4640 C.3       1 ODM427      0.0000
      9 CAI         7.0590   45.2390   33.1600 C.3       1 ODM427      0.0000
     10 CAJ         8.1510   44.2690   33.6170 C.3       1 ODM427      0.0000
     11 OAK         8.3710   43.2940   32.6030 O.3       1 ODM427      0.0000
@<TRIPOS>BOND
     1    1    2 1
     2    2    3 1
     3    2    4 2
     4    4    5 1
     5    5    6 1
     6    6    7 1
     7    7    8 1
     8    7    9 1
     9    9   10 1
    10   10   11 1
@<TRIPOS>SUBSTRUCTURE
     1 ODM427      1 RESIDUE           4 A     ODM     0 ROOT
