# created with PyMOL 2.3.5
@<TRIPOS>MOLECULE
MPG
65 64 1                 
SMALL
USER_CHARGES
@<TRIPOS>ATOM
1	  C2	4.405	-0.205	-0.390	C.3	1	MPG0	0.000	
2	  C3	3.416	-1.306	-0.002	C.3	1	MPG0	0.000	
3	  C4	2.009	-0.910	-0.456	C.3	1	MPG0	0.000	
4	  C5	1.020	-2.010	-0.068	C.3	1	MPG0	0.000	
5	  C6	-0.387	-1.614	-0.521	C.3	1	MPG0	0.000	
6	  C7	-1.376	-2.715	-0.134	C.3	1	MPG0	0.000	
7	  C8	-2.783	-2.319	-0.587	C.3	1	MPG0	0.000	
8	  C9	-3.758	-3.403	-0.205	C.2	1	MPG0	0.000	
9	 C10	-4.839	-3.103	0.471	C.2	1	MPG0	0.000	
10	 C11	-5.196	-1.661	0.721	C.3	1	MPG0	0.000	
11	 C12	-6.627	-1.400	0.246	C.3	1	MPG0	0.000	
12	 C13	-6.989	0.065	0.499	C.3	1	MPG0	0.000	
13	 C14	-8.420	0.325	0.024	C.3	1	MPG0	0.000	
14	 C15	-8.782	1.790	0.277	C.3	1	MPG0	0.000	
15	 C16	-10.213	2.051	-0.198	C.3	1	MPG0	0.000	
16	 C17	-10.576	3.516	0.055	C.3	1	MPG0	0.000	
17	 C18	-12.007	3.776	-0.420	C.3	1	MPG0	0.000	
18	  O1	6.751	0.444	-0.305	O.3	1	MPG0	0.000	
19	  C1	5.812	-0.601	0.063	C.3	1	MPG0	0.000	
20	 CXD	9.070	1.291	-0.326	C.3	1	MPG0	0.000	
21	  O2	10.370	0.807	0.020	O.3	1	MPG0	0.000	
22	 C21	8.781	2.576	0.451	C.3	1	MPG0	0.000	
23	  O3	9.688	3.599	0.034	O.3	1	MPG0	0.000	
24	  O4	8.369	-0.760	0.600	O.co2	1	MPG0	0.000	
25	 CX3	8.038	0.250	0.024	C.2	1	MPG0	0.000	
26	H21C	4.396	-0.072	-1.472	 H	1	MPG0	0.000	
27	H22C	4.118	0.729	0.093	 H	1	MPG0	0.000	
28	H31C	3.704	-2.240	-0.485	 H	1	MPG0	0.000	
29	H32C	3.425	-1.438	1.079	 H	1	MPG0	0.000	
30	H41C	1.722	0.024	0.027	 H	1	MPG0	0.000	
31	H42C	2.000	-0.777	-1.538	 H	1	MPG0	0.000	
32	H51C	1.308	-2.944	-0.551	 H	1	MPG0	0.000	
33	H52C	1.029	-2.143	1.014	 H	1	MPG0	0.000	
34	H61C	-0.675	-0.680	-0.038	 H	1	MPG0	0.000	
35	H62C	-0.396	-1.482	-1.603	 H	1	MPG0	0.000	
36	H71C	-1.088	-3.649	-0.617	 H	1	MPG0	0.000	
37	H72C	-1.367	-2.847	0.948	 H	1	MPG0	0.000	
38	H81C	-3.071	-1.385	-0.104	 H	1	MPG0	0.000	
39	H82C	-2.792	-2.187	-1.669	 H	1	MPG0	0.000	
40	  H9	-3.565	-4.427	-0.489	 H	1	MPG0	0.000	
41	 H10	-5.474	-3.890	0.850	 H	1	MPG0	0.000	
42	H111	-5.123	-1.448	1.787	 H	1	MPG0	0.000	
43	H112	-4.508	-1.016	0.173	 H	1	MPG0	0.000	
44	H121	-6.700	-1.613	-0.821	 H	1	MPG0	0.000	
45	H122	-7.314	-2.045	0.793	 H	1	MPG0	0.000	
46	H131	-6.916	0.278	1.565	 H	1	MPG0	0.000	
47	H132	-6.301	0.709	-0.049	 H	1	MPG0	0.000	
48	H141	-8.493	0.112	-1.043	 H	1	MPG0	0.000	
49	H142	-9.108	-0.319	0.571	 H	1	MPG0	0.000	
50	H151	-8.709	2.003	1.343	 H	1	MPG0	0.000	
51	H152	-8.095	2.434	-0.271	 H	1	MPG0	0.000	
52	H161	-10.286	1.838	-1.265	 H	1	MPG0	0.000	
53	H162	-10.901	1.406	0.349	 H	1	MPG0	0.000	
54	H171	-10.502	3.729	1.122	 H	1	MPG0	0.000	
55	H172	-9.888	4.160	-0.492	 H	1	MPG0	0.000	
56	H181	-12.265	4.820	-0.240	 H	1	MPG0	0.000	
57	H182	-12.080	3.563	-1.487	 H	1	MPG0	0.000	
58	H183	-12.694	3.132	0.127	 H	1	MPG0	0.000	
59	HX31	5.821	-0.733	1.145	 H	1	MPG0	0.000	
60	HX32	6.100	-1.535	-0.420	 H	1	MPG0	0.000	
61	 HXD	9.031	1.496	-1.396	 H	1	MPG0	0.000	
62	  H2	10.477	0.603	0.959	 H	1	MPG0	0.000	
63	H211	7.758	2.897	0.256	 H	1	MPG0	0.000	
64	H212	8.907	2.392	1.518	 H	1	MPG0	0.000	
65	  H3	9.562	4.444	0.486	 H	1	MPG0	0.000	
@<TRIPOS>BOND
1 1 2 1
2 1 19 1
3 2 3 1
4 3 4 1
5 4 5 1
6 5 6 1
7 6 7 1
8 7 8 1
9 8 9 2
10 9 10 1
11 10 11 1
12 11 12 1
13 12 13 1
14 13 14 1
15 14 15 1
16 15 16 1
17 16 17 1
18 18 19 1
19 18 25 1
20 20 21 1
21 20 22 1
22 20 25 1
23 22 23 1
24 1 26 1
25 1 27 1
26 2 28 1
27 2 29 1
28 24 25 2
29 3 30 1
30 3 31 1
31 4 32 1
32 4 33 1
33 5 34 1
34 5 35 1
35 6 36 1
36 6 37 1
37 7 38 1
38 7 39 1
39 8 40 1
40 9 41 1
41 10 42 1
42 10 43 1
43 11 44 1
44 11 45 1
45 12 46 1
46 12 47 1
47 13 48 1
48 13 49 1
49 14 50 1
50 14 51 1
51 15 52 1
52 15 53 1
53 16 54 1
54 16 55 1
55 17 56 1
56 17 57 1
57 17 58 1
58 19 59 1
59 19 60 1
60 20 61 1
61 21 62 1
62 22 63 1
63 22 64 1
64 23 65 1
@<TRIPOS>SUBSTRUCTURE
1	MPG0	1	GROUP	1 ****	MPG
