@<TRIPOS>MOLECULE
GM9
33 35 1 0 0
SMALL
NO_CHARGES


@<TRIPOS>ATOM
      1 C01        89.2530  112.2560  118.1300 C.3       1 GM9437      0.0000
      2 C02        88.1960  112.6890  119.1580 C.ar      1 GM9437      0.0000
      3 C03        85.2360  113.8600  122.0140 C.3       1 GM9437      0.0000
      4 C04        86.2710  113.4580  121.0200 C.ar      1 GM9437      0.0000
      5 C05        90.4810  111.6930  118.8690 C.3       1 GM9437      0.0000
      6 C06        89.6800  113.4630  117.2730 C.3       1 GM9437      0.0000
      7 C07        88.7660  111.1530  117.1650 C.3       1 GM9437      0.0000
      8 C08        87.0580  111.9120  119.3420 C.ar      1 GM9437      0.0000
      9 C09        88.3770  113.8510  119.9030 C.ar      1 GM9437      0.0000
     10 C10        84.3120  116.0110  121.1080 C.3       1 GM9437      0.0000
     11 C11        86.0960  112.2970  120.2740 C.ar      1 GM9437      0.0000
     12 C12        87.4140  114.2370  120.8350 C.ar      1 GM9437      0.0000
     13 C13        84.0430  116.9090  122.2800 C.ar      1 GM9437      0.0000
     14 C14        82.9620  112.8320  119.5700 C.ar      1 GM9437      0.0000
     15 C15        82.8500  116.8070  122.9960 C.ar      1 GM9437      0.0000
     16 C16        84.9920  117.8610  122.6450 C.ar      1 GM9437      0.0000
     17 C17        82.7860  113.3570  118.2970 C.ar      1 GM9437      0.0000
     18 C18        83.4130  111.5290  119.6680 C.ar      1 GM9437      0.0000
     19 C19        82.6120  117.6530  124.0790 C.ar      1 GM9437      0.0000
     20 C20        84.7520  118.7050  123.7270 C.ar      1 GM9437      0.0000
     21 C21        83.5620  118.6010  124.4440 C.ar      1 GM9437      0.0000
     22 C22        83.0700  112.5790  117.1810 C.ar      1 GM9437      0.0000
     23 C23        83.5220  111.2880  117.3900 C.ar      1 GM9437      0.0000
     24 C24        80.2390  117.7740  124.0700 C.3       1 GM9437      0.0000
     25 C25        79.2500  118.5090  124.9340 C.2       1 GM9437      0.0000
     26 N01        84.0920  114.5740  121.3960 N.pl3     1 GM9437      0.0000
     27 N02        83.7010  110.7430  118.6090 N.ar      1 GM9437      0.0000
     28 O01        81.6210  114.7850  120.6510 O.2       1 GM9437      0.0000
     29 O02        82.2850  112.8380  122.0630 O.2       1 GM9437      0.0000
     30 O03        81.4550  117.5590  124.7850 O.3       1 GM9437      0.0000
     31 O04        79.3190  119.8410  124.6940 O.co2     1 GM9437      0.0000
     32 O05        78.4840  118.0020  125.7390 O.co2     1 GM9437      0.0000
     33 S01        82.6060  113.7870  121.0180 S.o2      1 GM9437      0.0000
@<TRIPOS>BOND
     1    1    2 1
     2    1    5 1
     3    1    6 1
     4    1    7 1
     5    2    8 ar
     6    2    9 ar
     7    3    4 1
     8    3   26 1
     9    4   11 ar
    10    4   12 ar
    11    8   11 ar
    12    9   12 ar
    13   10   13 1
    14   10   26 1
    15   13   15 ar
    16   13   16 ar
    17   14   17 ar
    18   14   18 ar
    19   14   33 1
    20   15   19 ar
    21   16   20 ar
    22   17   22 ar
    23   18   27 ar
    24   19   21 ar
    25   19   30 1
    26   20   21 ar
    27   22   23 ar
    28   23   27 ar
    29   24   25 1
    30   24   30 1
    31   25   31 2
    32   25   32 2
    33   26   33 1
    34   28   33 2
    35   29   33 2
@<TRIPOS>SUBSTRUCTURE
     1 GM9437      1 RESIDUE           4 R     GM9     0 ROOT
