@<TRIPOS>MOLECULE
    9DT
   72    72     0     0     0
SMALL
USER_CHARGES


@<TRIPOS>ATOM
      1 X         -18.6020   23.6580    6.8610 N.4        1 9DT      0.000000
      2 X         -19.0050   23.9340    5.4850 C.3        1 9DT      0.000000
      3 X         -19.1930   25.4410    5.2710 C.2        1 9DT      0.000000
      4 X         -18.7690   25.9540    4.2400 O.2        1 9DT      0.000000
      5 X         -18.2345   23.5690    4.8059 H          1 9DT      0.000000
      6 X         -19.9432   23.4205    5.2746 H          1 9DT      0.000000
      7 X         -18.1928   22.7361    6.9140 H          1 9DT      0.000000
      8 X         -19.4112   23.7021    7.4638 H          1 9DT      0.000000
      9 X         -17.9235   24.3450    7.1573 H          1 9DT      0.000000
     10 X         -19.8120   26.1550    6.2240 N.am       2 9DT      0.000000
     11 X         -20.0390   27.6040    6.1140 C.3        2 9DT      0.000000
     12 Y1        -18.7300   28.4130    6.2770 C.2        2 9DT      0.000000
     13 X         -18.4990   29.3420    5.5050 O.2        2 9DT      0.000000
     14 X         -21.1550   28.1120    7.0840 C.3        2 9DT      0.000000
     15 X         -21.7580   29.3280    6.6900 O.3        2 9DT      0.000000
     16 X         -20.7450   28.2970    8.5550 C.3        2 9DT      0.000000
     17 X         -20.1359   25.6767    7.0525 H          2 9DT      0.000000
     18 X         -20.3969   27.7887    5.1011 H          2 9DT      0.000000
     19 X         -21.9419   27.3578    7.0737 H          2 9DT      0.000000
     20 X         -22.0345   29.2661    5.7728 H          2 9DT      0.000000
     21 X         -21.6378   28.4078    9.1704 H          2 9DT      0.000000
     22 X         -20.1810   27.4254    8.8871 H          2 9DT      0.000000
     23 X         -20.1252   29.1886    8.6501 H          2 9DT      0.000000
     24 C36       -15.5740   28.4840    6.4980 C.2        3 9DT      0.000000
     25 C38       -16.5990   28.6230    7.6810 C.3        3 9DT      0.000000
     26 C39       -16.8290   30.1100    8.0610 C.3        3 9DT      0.000000
     27 C40       -16.0790   27.8820    8.9540 C.3        3 9DT      0.000000
     28 C41       -14.5740   27.5900    8.9480 C.ar       3 9DT      0.000000
     29 C42       -14.1020   26.3400    8.5290 C.ar       3 9DT      0.000000
     30 C43       -12.7320   26.0810    8.5180 C.ar       3 9DT      0.000000
     31 C44       -11.8250   27.0590    8.9210 C.ar       3 9DT      0.000000
     32 C45       -12.2870   28.3050    9.3350 C.ar       3 9DT      0.000000
     33 C46       -13.6530   28.5690    9.3470 C.ar       3 9DT      0.000000
     34 F47       -14.0770   29.7860    9.7530 F          3 9DT      0.000000
     35 N48       -17.9020   28.0360    7.2780 N.am       3 9DT      0.000000
     36 O37       -14.7630   29.3790    6.2790 O.2        3 9DT      0.000000
     37 H402      -16.6096   26.9334    9.0364 H          3 9DT      0.000000
     38 H403      -16.3123   28.4884    9.8292 H          3 9DT      0.000000
     39 H42       -14.7987   25.5770    8.2146 H          3 9DT      0.000000
     40 H43       -12.3713   25.1156    8.1949 H          3 9DT      0.000000
     41 H44       -10.7653   26.8506    8.9121 H          3 9DT      0.000000
     42 H45       -11.5863   29.0656    9.6464 H          3 9DT      0.000000
     43 H48       -18.2127   27.2469    7.8266 H          3 9DT      0.000000
     44 H391      -17.1933   30.6558    7.1907 H          3 9DT      0.000000
     45 H392      -15.8894   30.5483    8.3972 H          3 9DT      0.000000
     46 H393      -17.5655   30.1705    8.8623 H          3 9DT      0.000000
     47 Y0        -15.6050   27.3680    5.7450 N.am       4 9DT      0.000000
     48 X         -14.7240   27.0850    4.6100 C.3        4 9DT      0.000000
     49 X         -14.8060   28.1630    3.5220 C.2        4 9DT      0.000000
     50 X         -13.7770   28.5130    2.9460 O.2        4 9DT      0.000000
     51 X         -15.1090   25.7760    3.8740 C.3        4 9DT      0.000000
     52 X         -16.4910   25.5430    4.0010 O.3        4 9DT      0.000000
     53 X         -14.4080   24.5130    4.3710 C.3        4 9DT      0.000000
     54 X         -16.2931   26.6680    5.9828 H          4 9DT      0.000000
     55 X         -13.6958   27.0091    4.9636 H          4 9DT      0.000000
     56 X         -14.8796   25.8995    2.8156 H          4 9DT      0.000000
     57 X         -16.9128   26.3189    4.3774 H          4 9DT      0.000000
     58 X         -14.7480   23.6556    3.7901 H          4 9DT      0.000000
     59 X         -14.6457   24.3560    5.4231 H          4 9DT      0.000000
     60 X         -13.3301   24.6261    4.2549 H          4 9DT      0.000000
     61 X         -16.0330   28.6400    3.2750 N.am       5 9DT      0.000000
     62 X         -16.3520   29.6550    2.2880 C.3        5 9DT      0.000000
     63 X         -15.4910   30.9220    2.4830 C.2        5 9DT      0.000000
     64 X         -14.6480   31.1990    1.6300 O.2        5 9DT      0.000000
     65 X         -17.8900   29.8570    2.2440 C.3        5 9DT      0.000000
     66 X         -18.5110   29.1300    1.2000 O.3        5 9DT      0.000000
     67 X         -16.7965   28.2636    3.8186 H          5 9DT      0.000000
     68 X         -16.0703   29.2398    1.3203 H          5 9DT      0.000000
     69 X         -15.6257   31.5520    3.3498 H          5 9DT      0.000000
     70 X         -18.3111   29.5291    3.1944 H          5 9DT      0.000000
     71 X         -18.1030   30.9176    2.1107 H          5 9DT      0.000000
     72 X         -19.4575   29.2894    1.2175 H          5 9DT      0.000000
@<TRIPOS>BOND
     1    1    2 1
     2    1    7 1
     3    1    8 1
     4    1    9 1
     5    2    3 1
     6    2    5 1
     7    2    6 1
     8    3    4 2
     9    3   10 am
    10   10   11 1
    11   10   17 1
    12   11   12 1
    13   11   14 1
    14   11   18 1
    15   12   13 2
    16   12   35 am
    17   14   15 1
    18   14   16 1
    19   14   19 1
    20   15   20 1
    21   16   21 1
    22   16   22 1
    23   16   23 1
    24   24   25 1
    25   24   36 2
    26   24   47 am
    27   25   26 1
    28   25   27 1
    29   25   35 1
    30   26   44 1
    31   26   45 1
    32   26   46 1
    33   27   28 1
    34   27   37 1
    35   27   38 1
    36   28   29 ar
    37   28   33 ar
    38   29   30 ar
    39   29   39 1
    40   30   31 ar
    41   30   40 1
    42   31   32 ar
    43   31   41 1
    44   32   33 ar
    45   32   42 1
    46   33   34 1
    47   35   43 1
    48   47   48 1
    49   47   54 1
    50   48   49 1
    51   48   51 1
    52   48   55 1
    53   49   50 2
    54   49   61 am
    55   51   52 1
    56   51   53 1
    57   51   56 1
    58   52   57 1
    59   53   58 1
    60   53   59 1
    61   53   60 1
    62   61   62 1
    63   61   67 1
    64   62   63 1
    65   62   65 1
    66   62   68 1
    67   63   64 2
    68   63   69 1
    69   65   66 1
    70   65   70 1
    71   65   71 1
    72   66   72 1
