# created with PyMOL 2.3.5
@<TRIPOS>MOLECULE
YCM
21 20 1                 
SMALL
USER_CHARGES
@<TRIPOS>ATOM
1	   N	3.035	-1.472	-0.440	N.3	1	YCM0	0.000	
2	  CA	1.665	-1.164	-0.766	C.3	1	YCM0	0.000	
3	  CB	1.076	-0.107	0.172	C.3	1	YCM0	0.000	
4	  SG	1.832	1.542	-0.014	S.3	1	YCM0	0.000	
5	  CD	0.824	2.422	1.200	C.3	1	YCM0	0.000	
6	  CE	1.261	3.865	1.246	C.2	1	YCM0	0.000	
7	 OZ1	1.227	4.600	0.261	O.2	1	YCM0	0.000	
8	 NZ2	1.707	4.267	2.484	N.pl3	1	YCM0	0.000	
9	   C	1.500	-0.794	-2.231	C.2	1	YCM0	0.000	
10	   O	2.436	-0.664	-3.010	O.co2	1	YCM0	0.000	
11	 OXT	0.208	-0.605	-2.593	O.3	1	YCM0	0.000	
12	   H	3.758	-1.236	-1.098	 H	1	YCM0	0.000	
13	  H2	3.225	-2.090	0.331	 H	1	YCM0	0.000	
14	  HA	1.117	-2.104	-0.627	 H	1	YCM0	0.000	
15	 HB2	1.217	-0.414	1.214	 H	1	YCM0	0.000	
16	 HB3	0.000	0.000	0.000	 H	1	YCM0	0.000	
17	 HD2	-0.230	2.382	0.908	 H	1	YCM0	0.000	
18	 HD3	0.926	1.938	2.175	 H	1	YCM0	0.000	
19	HZ21	2.021	5.225	2.601	 H	1	YCM0	0.000	
20	HZ22	1.735	3.644	3.285	 H	1	YCM0	0.000	
21	 HXT	0.125	-0.356	-3.538	 H	1	YCM0	0.000	
@<TRIPOS>BOND
1 1 2 1
2 1 12 1
3 1 13 1
4 2 3 1
5 2 9 1
6 2 14 1
7 3 4 1
8 3 15 1
9 3 16 1
10 4 5 1
11 5 6 1
12 5 17 1
13 5 18 1
14 6 7 2
15 6 8 1
16 8 19 1
17 8 20 1
18 9 10 2
19 9 11 1
20 11 21 1
@<TRIPOS>SUBSTRUCTURE
1	YCM0	1	GROUP	1 ****	YCM
