# created with PyMOL 2.3.5
@<TRIPOS>MOLECULE
ON9
78 81 1                 
SMALL
USER_CHARGES
@<TRIPOS>ATOM
1	 C30	-6.329	0.596	-1.657	C.3	1	ON90	0.000	
2	 C31	-4.993	2.698	2.458	C.3	1	ON90	0.000	
3	 C28	-1.761	0.570	-3.581	C.3	1	ON90	0.000	
4	 C27	5.264	4.613	-0.341	C.3	1	ON90	0.000	
5	 C29	-5.374	1.763	-1.675	C.2	1	ON90	0.000	
6	 C23	4.705	-0.837	-0.821	C.3	1	ON90	0.000	
7	 C24	6.023	-1.153	-0.110	C.3	1	ON90	0.000	
8	 C25	6.961	-1.837	-1.071	C.2	1	ON90	0.000	
9	 C26	4.563	2.340	-0.123	C.2	1	ON90	0.000	
10	 C21	3.767	-0.153	0.139	C.2	1	ON90	0.000	
11	  C1	-4.098	1.675	-0.962	C.2	1	ON90	0.000	
12	  O6	-5.663	2.774	-2.280	O.2	1	ON90	0.000	
13	  O5	-2.985	0.968	-2.959	O.3	1	ON90	0.000	
14	  C2	-2.933	1.276	-1.639	C.2	1	ON90	0.000	
15	 C20	3.712	1.282	0.443	C.2	1	ON90	0.000	
16	 C22	2.811	-0.734	0.884	C.2	1	ON90	0.000	
17	  C3	-1.733	1.197	-0.953	C.2	1	ON90	0.000	
18	  O3	4.389	3.621	0.258	O.3	1	ON90	0.000	
19	  C6	-0.364	1.420	1.127	C.3	1	ON90	0.000	
20	  O2	5.423	2.060	-0.935	O.co2	1	ON90	0.000	
21	  C5	-2.816	1.905	1.070	C.2	1	ON90	0.000	
22	  C8	-0.326	-1.050	0.757	C.3	1	ON90	0.000	
23	  C7	-0.255	0.056	1.811	C.3	1	ON90	0.000	
24	 C11	-2.519	-3.406	1.107	C.2	1	ON90	0.000	
25	  C4	-1.677	1.510	0.392	C.2	1	ON90	0.000	
26	  O1	8.184	-2.210	-0.664	O.3	1	ON90	0.000	
27	  C9	-0.330	-2.415	1.449	C.3	1	ON90	0.000	
28	 C13	-0.258	-3.556	0.413	C.3	1	ON90	0.000	
29	 C10	-1.686	-2.677	2.138	C.3	1	ON90	0.000	
30	 C12	-1.699	-3.912	0.115	C.2	1	ON90	0.000	
31	 C17	-3.888	-3.607	1.039	C.2	1	ON90	0.000	
32	  O4	-0.297	2.454	2.111	O.3	1	ON90	0.000	
33	 C16	-4.434	-4.317	-0.013	C.2	1	ON90	0.000	
34	 C15	-3.614	-4.827	-1.002	C.2	1	ON90	0.000	
35	 C14	-2.249	-4.621	-0.939	C.2	1	ON90	0.000	
36	 C18	1.078	-0.035	2.556	C.3	1	ON90	0.000	
37	 C19	2.701	1.435	1.367	C.2	1	ON90	0.000	
38	  O7	-5.142	2.388	1.071	O.3	1	ON90	0.000	
39	   C	-4.028	1.996	0.405	C.2	1	ON90	0.000	
40	   N	2.178	0.222	1.623	N.pl3	1	ON90	0.000	
41	   O	6.611	-2.051	-2.208	O.co2	1	ON90	0.000	
42	  H1	-5.864	-0.245	-1.144	 H	1	ON90	0.000	
43	  H2	-7.241	0.882	-1.134	 H	1	ON90	0.000	
44	  H3	-6.571	0.310	-2.680	 H	1	ON90	0.000	
45	  H4	-4.280	3.515	2.574	 H	1	ON90	0.000	
46	  H5	-5.957	2.997	2.869	 H	1	ON90	0.000	
47	  H6	-4.628	1.819	2.990	 H	1	ON90	0.000	
48	  H7	-1.377	-0.322	-3.087	 H	1	ON90	0.000	
49	  H8	-1.942	0.353	-4.634	 H	1	ON90	0.000	
50	  H9	-1.032	1.375	-3.496	 H	1	ON90	0.000	
51	 H10	5.019	5.599	0.052	 H	1	ON90	0.000	
52	 H11	6.301	4.374	-0.103	 H	1	ON90	0.000	
53	 H12	5.130	4.609	-1.423	 H	1	ON90	0.000	
54	 H13	4.898	-0.181	-1.670	 H	1	ON90	0.000	
55	 H14	4.252	-1.764	-1.174	 H	1	ON90	0.000	
56	 H15	6.476	-0.226	0.242	 H	1	ON90	0.000	
57	 H16	5.830	-1.809	0.738	 H	1	ON90	0.000	
58	 H17	2.581	-1.789	0.895	 H	1	ON90	0.000	
59	 H18	-0.836	0.891	-1.472	 H	1	ON90	0.000	
60	 H19	0.457	1.539	0.419	 H	1	ON90	0.000	
61	 H20	-2.760	2.147	2.121	 H	1	ON90	0.000	
62	 H21	-1.240	-0.937	0.173	 H	1	ON90	0.000	
63	 H22	0.538	-0.980	0.097	 H	1	ON90	0.000	
64	 H23	-1.076	-0.062	2.518	 H	1	ON90	0.000	
65	 H24	8.750	-2.645	-1.316	 H	1	ON90	0.000	
66	 H25	0.491	-2.487	2.163	 H	1	ON90	0.000	
67	 H26	0.242	-3.214	-0.493	 H	1	ON90	0.000	
68	 H27	0.266	-4.415	0.832	 H	1	ON90	0.000	
69	 H28	-2.160	-1.734	2.411	 H	1	ON90	0.000	
70	 H29	-1.546	-3.300	3.022	 H	1	ON90	0.000	
71	 H30	-4.530	-3.209	1.810	 H	1	ON90	0.000	
72	 H31	-0.999	2.411	2.775	 H	1	ON90	0.000	
73	 H32	-5.502	-4.472	-0.063	 H	1	ON90	0.000	
74	 H33	-4.039	-5.382	-1.824	 H	1	ON90	0.000	
75	 H34	-1.609	-5.021	-1.711	 H	1	ON90	0.000	
76	 H35	1.099	0.706	3.355	 H	1	ON90	0.000	
77	 H36	1.189	-1.032	2.983	 H	1	ON90	0.000	
78	 H37	2.386	2.368	1.812	 H	1	ON90	0.000	
@<TRIPOS>BOND
1 1 5 1
2 3 13 1
3 33 34 2
4 34 35 1
5 13 14 1
6 31 33 1
7 5 12 2
8 5 11 1
9 30 35 2
10 11 14 2
11 14 17 1
12 24 31 2
13 11 39 1
14 24 30 1
15 28 30 1
16 17 25 2
17 24 29 1
18 38 39 1
19 21 39 2
20 2 38 1
21 27 28 1
22 21 25 1
23 19 25 1
24 27 29 1
25 4 18 1
26 22 27 1
27 22 23 1
28 19 23 1
29 19 32 1
30 9 18 1
31 23 36 1
32 9 15 1
33 9 20 2
34 15 37 2
35 37 40 1
36 10 15 1
37 36 40 1
38 16 40 1
39 10 16 2
40 6 10 1
41 6 7 1
42 7 8 1
43 8 41 2
44 8 26 1
45 1 42 1
46 1 43 1
47 1 44 1
48 2 45 1
49 2 46 1
50 2 47 1
51 3 48 1
52 3 49 1
53 3 50 1
54 4 51 1
55 4 52 1
56 4 53 1
57 6 54 1
58 6 55 1
59 7 56 1
60 7 57 1
61 16 58 1
62 17 59 1
63 19 60 1
64 21 61 1
65 22 62 1
66 22 63 1
67 23 64 1
68 26 65 1
69 27 66 1
70 28 67 1
71 28 68 1
72 29 69 1
73 29 70 1
74 31 71 1
75 32 72 1
76 33 73 1
77 34 74 1
78 35 75 1
79 36 76 1
80 36 77 1
81 37 78 1
@<TRIPOS>SUBSTRUCTURE
1	ON90	1	GROUP	1 ****	ON9
