@<TRIPOS>MOLECULE
ZQY
30 33 1 0 0
SMALL
NO_CHARGES


@<TRIPOS>ATOM
      1 N1        196.2860  187.4500  171.6990 N.pl3     1 ZQY937      0.0000
      2 N3        197.1010  185.3200  170.8480 N.ar      1 ZQY937      0.0000
      3 C4        196.6080  185.3500  175.9520 C.ar      1 ZQY937      0.0000
      4 C5        196.2690  185.1020  177.1900 C.ar      1 ZQY937      0.0000
      5 C6        195.6950  186.2060  178.0620 C.ar      1 ZQY937      0.0000
      6 C7        196.8470  187.0010  173.9350 C.3       1 ZQY937      0.0000
      7 C8        195.7130  186.9210  172.9210 C.3       1 ZQY937      0.0000
      8 C10       196.6630  187.1480  169.2490 C.ar      1 ZQY937      0.0000
      9 C13       198.8310  183.1560  171.0950 C.3       1 ZQY937      0.0000
     10 C15       196.3000  188.4010  168.7010 C.ar      1 ZQY937      0.0000
     11 C17       197.3300  190.6340  166.4060 C.3       1 ZQY937      0.0000
     12 C20       194.1270  183.8370  179.6560 C.2       1 ZQY937      0.0000
     13 C1        195.5500  187.4190  177.5760 C.ar      1 ZQY937      0.0000
     14 O1        197.8920  183.2580  170.0670 O.3       1 ZQY937      0.0000
     15 S1        196.9970  187.0710  166.5870 S.2       1 ZQY937      0.0000
     16 C2        195.9300  187.7020  176.1230 C.ar      1 ZQY937      0.0000
     17 N2        197.4770  185.0110  168.5100 N.ar      1 ZQY937      0.0000
     18 O2        195.3330  185.9130  179.3780 O.3       1 ZQY937      0.0000
     19 C3        196.4430  186.7480  175.3810 C.ar      1 ZQY937      0.0000
     20 N4        193.3720  183.1960  180.5140 N.pl3     1 ZQY937      0.0000
     21 N5        193.7110  181.8820  180.3750 N.pl3     1 ZQY937      0.0000
     22 N6        194.6820  181.8000  179.4110 N.pl3     1 ZQY937      0.0000
     23 N7        194.9300  183.0660  178.9660 N.2       1 ZQY937      0.0000
     24 C9        196.6760  186.6140  170.5860 C.ar      1 ZQY937      0.0000
     25 C11       197.0750  186.2890  168.2130 C.ar      1 ZQY937      0.0000
     26 C12       197.4760  184.5650  169.8230 C.ar      1 ZQY937      0.0000
     27 C14       196.4070  188.5480  167.3440 C.ar      1 ZQY937      0.0000
     28 C16       196.0620  189.8170  166.5840 C.3       1 ZQY937      0.0000
     29 C18       196.9940  191.8610  165.5700 C.3       1 ZQY937      0.0000
     30 C19       194.0580  185.3520  179.4880 C.3       1 ZQY937      0.0000
@<TRIPOS>BOND
     1    1    7 1
     2    1   24 1
     3    2   24 ar
     4    2   26 ar
     5    3    4 ar
     6    3   19 ar
     7    4    5 ar
     8    5   13 ar
     9    5   18 1
    10    6    7 1
    11    6   19 1
    12    8   10 ar
    13    8   24 ar
    14    8   25 ar
    15    9   14 1
    16   10   27 ar
    17   11   28 1
    18   11   29 1
    19   12   20 2
    20   12   23 2
    21   12   30 1
    22   13   16 ar
    23   14   26 1
    24   15   25 ar
    25   15   27 ar
    26   16   19 ar
    27   17   25 ar
    28   17   26 ar
    29   18   30 1
    30   20   21 2
    31   21   22 2
    32   22   23 2
    33   27   28 1
@<TRIPOS>SUBSTRUCTURE
     1 ZQY937      1 RESIDUE           4 A     ZQY     0 ROOT
