# created with PyMOL 2.3.5
@<TRIPOS>MOLECULE
AWY
35 36 1 0 0
SMALL
USER_CHARGES


@<TRIPOS>ATOM
      1 N1         -3.3630    0.1470    0.5010 N.pl3     1 AWY1        0.0000
      2 C4         -1.2420   -0.9090    1.1060 C.3       1 AWY1        0.0000
      3 C5          0.0310   -1.4900    0.5470 C.2       1 AWY1        0.0000
      4 C6          0.1330   -2.8300    0.3290 C.2       1 AWY1        0.0000
      5 C7          1.3030   -3.3850   -0.1880 C.2       1 AWY1        0.0000
      6 C8          2.3760   -2.6050   -0.4880 C.2       1 AWY1        0.0000
      7 C10         1.1170   -0.6520    0.2440 C.2       1 AWY1        0.0000
      8 C13         3.2930    0.9600   -0.3740 C.2       1 AWY1        0.0000
      9 C15         3.1990    3.6330   -0.0150 C.3       1 AWY1        0.0000
     10 C1         -5.5690    1.2320    0.2280 C.3       1 AWY1        0.0000
     11 C2         -4.2990    0.6450   -0.3310 C.2       1 AWY1        0.0000
     12 O1         -4.1180    0.6210   -1.5300 O.2       1 AWY1        0.0000
     13 C3         -2.1250   -0.4180   -0.0420 C.3       1 AWY1        0.0000
     14 C9          2.3090   -1.2170   -0.2760 C.2       1 AWY1        0.0000
     15 C11         1.0460    0.7360    0.4510 C.2       1 AWY1        0.0000
     16 C12         2.1210    1.5200    0.1440 C.2       1 AWY1        0.0000
     17 C14         3.3980   -0.3800   -0.5760 C.2       1 AWY1        0.0000
     18 O2          2.0470    2.8640    0.3350 O.3       1 AWY1        0.0000
     19 H1         -3.5070    0.1660    1.4600 H         1 AWY1        0.0000
     20 H2         -1.7730   -1.6750    1.6720 H         1 AWY1        0.0000
     21 H3         -1.0020   -0.0730    1.7630 H         1 AWY1        0.0000
     22 H4         -0.7040   -3.4720    0.5590 H         1 AWY1        0.0000
     23 H5          1.3580   -4.4510   -0.3520 H         1 AWY1        0.0000
     24 H6          3.2770   -3.0500   -0.8840 H         1 AWY1        0.0000
     25 H7          4.1270    1.6020   -0.6180 H         1 AWY1        0.0000
     26 H8          3.4170    3.4990   -1.0750 H         1 AWY1        0.0000
     27 H9          3.0070    4.6870    0.1850 H         1 AWY1        0.0000
     28 H10         4.0520    3.3000    0.5760 H         1 AWY1        0.0000
     29 H11        -5.5520    1.1660    1.3160 H         1 AWY1        0.0000
     30 H12        -5.6490    2.2770   -0.0710 H         1 AWY1        0.0000
     31 H13        -6.4250    0.6780   -0.1560 H         1 AWY1        0.0000
     32 H14        -2.3650   -1.2540   -0.6990 H         1 AWY1        0.0000
     33 H15        -1.5940    0.3470   -0.6080 H         1 AWY1        0.0000
     34 H16         0.1460    1.1800    0.8510 H         1 AWY1        0.0000
     35 H17         4.3090   -0.7990   -0.9760 H         1 AWY1        0.0000
@<TRIPOS>BOND
     1    8   17 2
     2   14   17 1
     3    6   14 2
     4    5    6 1
     5    8   16 1
     6    7   14 1
     7    4    5 2
     8   16   18 1
     9   15   16 2
    10    9   18 1
    11    7   15 1
    12    3    7 2
    13    3    4 1
    14    2    3 1
    15    2   13 1
    16    1   13 1
    17    1   11 1
    18   10   11 1
    19   11   12 2
    20    1   19 1
    21    2   20 1
    22    2   21 1
    23    4   22 1
    24    5   23 1
    25    6   24 1
    26    8   25 1
    27    9   26 1
    28    9   27 1
    29    9   28 1
    30   10   29 1
    31   10   30 1
    32   10   31 1
    33   13   32 1
    34   13   33 1
    35   15   34 1
    36   17   35 1
@<TRIPOS>SUBSTRUCTURE
     1 AWY1        1 RESIDUE           4 A     AWY     0 ROOT
