# created with PyMOL 2.3.5
@<TRIPOS>MOLECULE
FM9
44 46 1                 
SMALL
USER_CHARGES
@<TRIPOS>ATOM
1	  C1	5.426	1.752	0.109	C.2	1	FM90	0.000	
2	  N1	5.812	0.495	0.021	N.2	1	FM90	0.000	
3	  S1	-0.389	2.875	0.110	S.3	1	FM90	0.000	
4	  O1	-2.874	2.149	-0.085	O.2	1	FM90	0.000	
5	  F1	-7.430	-2.188	0.094	 F	1	FM90	0.000	
6	 C10	-4.012	0.111	-0.035	C.2	1	FM90	0.000	
7	 C11	-3.998	-1.131	0.605	C.2	1	FM90	0.000	
8	 C12	-5.144	-1.896	0.645	C.2	1	FM90	0.000	
9	 C13	-6.309	-1.435	0.052	C.2	1	FM90	0.000	
10	 C14	-6.329	-0.203	-0.585	C.2	1	FM90	0.000	
11	 C15	-5.189	0.570	-0.630	C.2	1	FM90	0.000	
12	 C16	4.350	-2.886	-0.249	C.3	1	FM90	0.000	
13	 C17	4.977	-4.097	-0.942	C.3	1	FM90	0.000	
14	 C18	3.893	-3.283	1.156	C.3	1	FM90	0.000	
15	  C2	3.198	1.164	0.030	C.2	1	FM90	0.000	
16	  N2	4.154	2.091	0.117	N.2	1	FM90	0.000	
17	  C3	3.564	-0.178	-0.059	C.2	1	FM90	0.000	
18	  N3	0.785	0.661	-0.045	N.2	1	FM90	0.000	
19	  C4	4.922	-0.491	-0.064	C.2	1	FM90	0.000	
20	  N4	-1.577	0.347	-0.104	N.pl3	1	FM90	0.000	
21	  N5	5.339	-1.810	-0.156	N.pl3	1	FM90	0.000	
22	  C5	1.769	1.554	0.040	C.2	1	FM90	0.000	
23	  C6	1.373	2.838	0.133	C.2	1	FM90	0.000	
24	  C7	-0.427	1.120	-0.027	C.2	1	FM90	0.000	
25	  C8	-2.789	0.937	-0.076	C.2	1	FM90	0.000	
26	  C9	-1.475	-1.111	-0.215	C.3	1	FM90	0.000	
27	  H1	6.175	2.526	0.181	 H	1	FM90	0.000	
28	  H2	-3.090	-1.492	1.066	 H	1	FM90	0.000	
29	  H3	-5.134	-2.856	1.139	 H	1	FM90	0.000	
30	  H4	-7.239	0.151	-1.046	 H	1	FM90	0.000	
31	  H5	-5.205	1.530	-1.126	 H	1	FM90	0.000	
32	  H6	3.491	-2.542	-0.826	 H	1	FM90	0.000	
33	  H7	5.836	-4.442	-0.365	 H	1	FM90	0.000	
34	  H8	4.241	-4.898	-1.011	 H	1	FM90	0.000	
35	  H9	5.302	-3.815	-1.944	 H	1	FM90	0.000	
36	 H10	3.446	-2.420	1.650	 H	1	FM90	0.000	
37	 H11	3.157	-4.083	1.087	 H	1	FM90	0.000	
38	 H12	4.752	-3.627	1.733	 H	1	FM90	0.000	
39	 H13	2.816	-0.954	-0.123	 H	1	FM90	0.000	
40	 H14	6.286	-2.020	-0.159	 H	1	FM90	0.000	
41	 H15	2.023	3.697	0.209	 H	1	FM90	0.000	
42	 H16	-1.463	-1.551	0.782	 H	1	FM90	0.000	
43	 H17	-2.331	-1.494	-0.771	 H	1	FM90	0.000	
44	 H18	-0.555	-1.371	-0.738	 H	1	FM90	0.000	
@<TRIPOS>BOND
1 12 14 1
2 12 13 1
3 12 21 1
4 19 21 1
5 2 19 2
6 1 2 1
7 17 19 1
8 1 16 2
9 15 17 2
10 15 16 1
11 15 22 1
12 18 22 1
13 22 23 2
14 18 24 2
15 3 23 1
16 4 25 2
17 3 24 1
18 20 24 1
19 20 25 1
20 6 25 1
21 20 26 1
22 6 11 2
23 10 11 1
24 6 7 1
25 9 10 2
26 7 8 2
27 8 9 1
28 5 9 1
29 1 27 1
30 7 28 1
31 8 29 1
32 10 30 1
33 11 31 1
34 12 32 1
35 13 33 1
36 13 34 1
37 13 35 1
38 14 36 1
39 14 37 1
40 14 38 1
41 17 39 1
42 21 40 1
43 23 41 1
44 26 42 1
45 26 43 1
46 26 44 1
@<TRIPOS>SUBSTRUCTURE
1	FM90	1	GROUP	1 ****	FM9
