# created with PyMOL 2.3.5
@<TRIPOS>MOLECULE
ZD7
59 63 1                 
SMALL
USER_CHARGES
@<TRIPOS>ATOM
1	  C4	-3.692	-1.951	-0.472	C.2	1	ZD70	0.000	
2	  C3	-4.024	0.126	-1.427	C.2	1	ZD70	0.000	
3	  C2	-4.622	0.953	-2.536	C.3	1	ZD70	0.000	
4	  C1	-6.029	1.401	-2.135	C.3	1	ZD70	0.000	
5	  O1	-1.340	2.415	2.619	O.2	1	ZD70	0.000	
6	  N1	-4.201	-1.183	-1.417	N.2	1	ZD70	0.000	
7	 C10	-3.074	2.231	-0.452	C.3	1	ZD70	0.000	
8	 C11	-2.997	2.759	0.981	C.3	1	ZD70	0.000	
9	 C12	-2.065	1.900	1.795	C.2	1	ZD70	0.000	
10	 C13	-1.211	-0.263	2.504	C.3	1	ZD70	0.000	
11	 C14	0.132	-0.509	1.867	C.2	1	ZD70	0.000	
12	 C15	0.334	-1.642	1.101	C.2	1	ZD70	0.000	
13	 C16	1.562	-1.873	0.515	C.2	1	ZD70	0.000	
14	 C17	1.157	0.403	2.047	C.2	1	ZD70	0.000	
15	 C18	2.389	0.184	1.466	C.2	1	ZD70	0.000	
16	 C19	2.600	-0.960	0.697	C.2	1	ZD70	0.000	
17	  N2	-2.028	0.567	1.615	N.pl3	1	ZD70	0.000	
18	 C20	3.922	-1.201	0.070	C.2	1	ZD70	0.000	
19	 C21	4.552	-2.434	0.219	C.2	1	ZD70	0.000	
20	 C22	5.783	-2.654	-0.366	C.2	1	ZD70	0.000	
21	 C23	6.398	-1.656	-1.103	C.2	1	ZD70	0.000	
22	 C24	5.788	-0.429	-1.261	C.2	1	ZD70	0.000	
23	 C25	4.542	-0.190	-0.682	C.2	1	ZD70	0.000	
24	 C26	3.881	1.121	-0.854	C.2	1	ZD70	0.000	
25	  N3	4.362	2.182	-1.550	N.pl3	1	ZD70	0.000	
26	  N4	3.382	3.182	-1.421	N.2	1	ZD70	0.000	
27	  C5	-3.918	-3.440	-0.522	C.3	1	ZD70	0.000	
28	  N5	2.435	2.687	-0.700	N.2	1	ZD70	0.000	
29	  C6	-5.419	-3.726	-0.600	C.3	1	ZD70	0.000	
30	  N6	2.712	1.478	-0.366	N.2	1	ZD70	0.000	
31	  C7	-2.951	-1.408	0.559	C.2	1	ZD70	0.000	
32	  C8	-2.760	-0.030	0.594	C.2	1	ZD70	0.000	
33	  C9	-3.296	0.742	-0.431	C.2	1	ZD70	0.000	
34	  H1	-3.999	1.829	-2.713	 H	1	ZD70	0.000	
35	  H2	-4.677	0.355	-3.445	 H	1	ZD70	0.000	
36	  H3	-6.653	0.525	-1.957	 H	1	ZD70	0.000	
37	  H4	-5.974	1.999	-1.225	 H	1	ZD70	0.000	
38	  H5	-6.462	1.999	-2.936	 H	1	ZD70	0.000	
39	  H6	-3.900	2.714	-0.973	 H	1	ZD70	0.000	
40	  H7	-2.140	2.451	-0.970	 H	1	ZD70	0.000	
41	  H8	-2.627	3.784	0.970	 H	1	ZD70	0.000	
42	  H9	-3.991	2.738	1.428	 H	1	ZD70	0.000	
43	 H10	-1.713	-1.216	2.674	 H	1	ZD70	0.000	
44	 H11	-1.074	0.250	3.456	 H	1	ZD70	0.000	
45	 H12	-0.471	-2.349	0.961	 H	1	ZD70	0.000	
46	 H13	1.719	-2.758	-0.083	 H	1	ZD70	0.000	
47	 H14	0.992	1.289	2.643	 H	1	ZD70	0.000	
48	 H15	3.188	0.897	1.606	 H	1	ZD70	0.000	
49	 H16	4.079	-3.217	0.793	 H	1	ZD70	0.000	
50	 H17	6.269	-3.611	-0.248	 H	1	ZD70	0.000	
51	 H18	7.361	-1.839	-1.557	 H	1	ZD70	0.000	
52	 H19	6.273	0.346	-1.837	 H	1	ZD70	0.000	
53	 H20	5.201	2.238	-2.033	 H	1	ZD70	0.000	
54	 H21	-3.423	-3.853	-1.401	 H	1	ZD70	0.000	
55	 H22	-3.506	-3.900	0.377	 H	1	ZD70	0.000	
56	 H23	-5.913	-3.313	0.279	 H	1	ZD70	0.000	
57	 H24	-5.830	-3.266	-1.498	 H	1	ZD70	0.000	
58	 H25	-5.582	-4.803	-0.636	 H	1	ZD70	0.000	
59	 H26	-2.528	-2.042	1.324	 H	1	ZD70	0.000	
@<TRIPOS>BOND
1 5 9 2
2 7 8 1
3 8 9 1
4 7 33 1
5 9 17 1
6 10 17 1
7 17 32 1
8 32 33 2
9 2 33 1
10 3 4 1
11 2 3 1
12 26 28 2
13 25 26 1
14 10 11 1
15 31 32 1
16 2 6 2
17 28 30 1
18 24 25 1
19 11 14 2
20 11 12 1
21 14 15 1
22 1 6 1
23 12 13 2
24 1 31 2
25 24 30 2
26 23 24 1
27 1 27 1
28 15 16 2
29 13 16 1
30 16 18 1
31 27 29 1
32 18 23 2
33 22 23 1
34 18 19 1
35 21 22 2
36 19 20 2
37 20 21 1
38 3 34 1
39 3 35 1
40 4 36 1
41 4 37 1
42 4 38 1
43 7 39 1
44 7 40 1
45 8 41 1
46 8 42 1
47 10 43 1
48 10 44 1
49 12 45 1
50 13 46 1
51 14 47 1
52 15 48 1
53 19 49 1
54 20 50 1
55 21 51 1
56 22 52 1
57 25 53 1
58 27 54 1
59 27 55 1
60 29 56 1
61 29 57 1
62 29 58 1
63 31 59 1
@<TRIPOS>SUBSTRUCTURE
1	ZD70	1	GROUP	1 ****	ZD7
