# created with PyMOL 2.3.5
@<TRIPOS>MOLECULE
9DQ
18 18 1                 
SMALL
USER_CHARGES
@<TRIPOS>ATOM
1	 C57	2.519	0.125	-0.009	C.2	1	9DQ0	0.000	
2	 C59	1.077	-0.031	-0.421	C.3	1	9DQ0	0.000	
3	 C60	0.172	0.212	0.789	C.3	1	9DQ0	0.000	
4	 C61	-1.269	0.177	0.352	C.2	1	9DQ0	0.000	
5	 N62	-2.245	-0.598	0.861	N.pl3	1	9DQ0	0.000	
6	 N63	-3.326	-0.323	0.213	N.2	1	9DQ0	0.000	
7	 N64	-3.064	0.580	-0.666	N.2	1	9DQ0	0.000	
8	 N65	-1.819	0.900	-0.593	N.2	1	9DQ0	0.000	
9	 N66	0.859	-1.391	-0.931	N.3	1	9DQ0	0.000	
10	 O58	3.193	-0.852	0.214	O.co2	1	9DQ0	0.000	
11	  H2	0.842	0.692	-1.202	 H	1	9DQ0	0.000	
12	  H3	0.345	-0.564	1.534	 H	1	9DQ0	0.000	
13	  H4	0.398	1.187	1.221	 H	1	9DQ0	0.000	
14	  H5	-2.152	-1.243	1.580	 H	1	9DQ0	0.000	
15	  H6	1.070	-2.080	-0.225	 H	1	9DQ0	0.000	
16	  H7	-0.084	-1.502	-1.273	 H	1	9DQ0	0.000	
17	 OXT	3.055	1.351	0.104	O.3	1	9DQ0	0.000	
18	  H1	3.984	1.400	0.370	 H	1	9DQ0	0.000	
@<TRIPOS>BOND
1 1 10 2
2 1 2 1
3 2 3 1
4 2 9 1
5 3 4 1
6 4 8 2
7 4 5 1
8 7 8 1
9 5 6 1
10 6 7 2
11 2 11 1
12 3 12 1
13 3 13 1
14 5 14 1
15 9 15 1
16 9 16 1
17 1 17 1
18 17 18 1
@<TRIPOS>SUBSTRUCTURE
1	9DQ0	1	GROUP	1 ****	9DQ
