# created with PyMOL 2.3.5
@<TRIPOS>MOLECULE
PEG
17 16 1                 
SMALL
USER_CHARGES
@<TRIPOS>ATOM
1	  C1	-2.339	-0.042	-0.588	C.3	1	PEG0	0.000	
2	  O1	-2.667	-0.784	0.588	O.3	1	PEG0	0.000	
3	  C2	-1.162	0.890	-0.292	C.3	1	PEG0	0.000	
4	  O2	0.000	0.112	0.000	O.3	1	PEG0	0.000	
5	  C3	1.162	0.890	0.292	C.3	1	PEG0	0.000	
6	  C4	2.339	-0.042	0.588	C.3	1	PEG0	0.000	
7	  O4	2.667	-0.784	-0.589	O.3	1	PEG0	0.000	
8	 H11	-2.065	-0.731	-1.388	 H	1	PEG0	0.000	
9	 H12	-3.201	0.549	-0.897	 H	1	PEG0	0.000	
10	 HO1	-3.406	-1.397	0.473	 H	1	PEG0	0.000	
11	 H21	-0.969	1.519	-1.161	 H	1	PEG0	0.000	
12	 H22	-1.403	1.519	0.565	 H	1	PEG0	0.000	
13	 H31	1.403	1.519	-0.564	 H	1	PEG0	0.000	
14	 H32	0.969	1.518	1.162	 H	1	PEG0	0.000	
15	 H41	3.201	0.548	0.898	 H	1	PEG0	0.000	
16	 H42	2.065	-0.731	1.387	 H	1	PEG0	0.000	
17	 HO4	3.406	-1.397	-0.474	 H	1	PEG0	0.000	
@<TRIPOS>BOND
1 1 2 1
2 1 3 1
3 1 8 1
4 1 9 1
5 2 10 1
6 3 4 1
7 3 11 1
8 3 12 1
9 4 5 1
10 5 6 1
11 5 13 1
12 5 14 1
13 6 7 1
14 6 15 1
15 6 16 1
16 7 17 1
@<TRIPOS>SUBSTRUCTURE
1	PEG0	1	GROUP	1 ****	PEG
