@<TRIPOS>MOLECULE
HSM
8 8 1 0 0
SMALL
NO_CHARGES


@<TRIPOS>ATOM
      1 N         129.4560  133.6950  159.3040 N.4       1 HSM587      0.0000
      2 CA        130.6680  133.7380  158.5070 C.3       1 HSM587      0.0000
      3 CB        131.3120  132.3600  158.5030 C.3       1 HSM587      0.0000
      4 CG        132.8290  132.4190  158.4070 C.ar      1 HSM587      0.0000
      5 ND1       133.6620  132.8330  159.3340 N.ar      1 HSM587      0.0000
      6 CD2       133.5990  132.0390  157.3250 C.ar      1 HSM587      0.0000
      7 CE1       134.8900  132.7270  158.8770 C.ar      1 HSM587      0.0000
      8 NE2       134.8580  132.2460  157.6550 N.ar      1 HSM587      0.0000
@<TRIPOS>BOND
     1    1    2 1
     2    2    3 1
     3    3    4 1
     4    4    5 ar
     5    4    6 ar
     6    5    7 ar
     7    6    8 ar
     8    7    8 ar
@<TRIPOS>SUBSTRUCTURE
     1 HSM587      1 RESIDUE           4 R     HSM     0 ROOT
