# created with PyMOL 2.3.5
@<TRIPOS>MOLECULE
DLB
59 62 1 0 0
SMALL
USER_CHARGES


@<TRIPOS>ATOM
      1 C10         4.1960   -0.3410   -0.2920 C.2       1 DLB1        0.0000
      2 C11         3.8160   -1.3150   -1.1960 C.2       1 DLB1        0.0000
      3 C13         5.1250   -2.9290   -0.0050 C.2       1 DLB1        0.0000
      4 C15         5.0400   -0.6600    0.7550 C.2       1 DLB1        0.0000
      5 C17         4.8830    2.0180   -0.6270 C.3       1 DLB1        0.0000
      6 C18         5.6090    1.6890   -1.9330 C.3       1 DLB1        0.0000
      7 C19         4.3810    3.4630   -0.6720 C.3       1 DLB1        0.0000
      8 C21        -3.2240    2.0040   -0.4020 C.2       1 DLB1        0.0000
      9 C22        -2.9650    0.7860    0.2230 C.2       1 DLB1        0.0000
     10 C24        -3.8690   -0.2570    0.1010 C.2       1 DLB1        0.0000
     11 C25        -5.0240   -0.0880   -0.6400 C.2       1 DLB1        0.0000
     12 C26        -5.2820    1.1210   -1.2590 C.2       1 DLB1        0.0000
     13 C27        -4.3820    2.1650   -1.1450 C.2       1 DLB1        0.0000
     14 C28        -6.0040   -1.2250   -0.7730 C.3       1 DLB1        0.0000
     15 C1          0.7840    1.8210    1.9310 C.3       1 DLB1        0.0000
     16 C2         -0.3130    2.7530    1.4030 C.3       1 DLB1        0.0000
     17 C3         -1.1200    2.0290    0.3300 C.3       1 DLB1        0.0000
     18 C4         -0.2240    1.6160   -0.8330 C.3       1 DLB1        0.0000
     19 C5          0.8730    0.6750   -0.3240 C.3       1 DLB1        0.0000
     20 N6          1.5720    1.3270    0.7930 N.pl3     1 DLB1        0.0000
     21 C7          2.9120    1.4680    0.7740 C.2       1 DLB1        0.0000
     22 O8          3.4880    1.9150    1.7430 O.2       1 DLB1        0.0000
     23 C9          3.6940    1.0710   -0.4520 C.3       1 DLB1        0.0000
     24 C12         4.2800   -2.6090   -1.0530 C.2       1 DLB1        0.0000
     25 C14         5.5060   -1.9530    0.8980 C.2       1 DLB1        0.0000
     26 CL          5.7080   -4.5540    0.1750 Cl        1 DLB1        0.0000
     27 O20        -2.1930    2.8600   -0.1360 O.3       1 DLB1        0.0000
     28 O23        -1.7720    0.8780    0.8810 O.3       1 DLB1        0.0000
     29 C29        -7.0270   -1.1520    0.3630 C.3       1 DLB1        0.0000
     30 C30        -8.0070   -2.2890    0.2300 C.2       1 DLB1        0.0000
     31 O31        -9.0000   -2.4270    1.1230 O.3       1 DLB1        0.0000
     32 O32        -7.8990   -3.0760   -0.6800 O.co2     1 DLB1        0.0000
     33 H11         3.1566   -1.0650   -2.0140 H         1 DLB1        0.0000
     34 H15         5.3354    0.1015    1.4616 H         1 DLB1        0.0000
     35 H17         5.5698    1.8978    0.2108 H         1 DLB1        0.0000
     36 H24        -3.6714   -1.2021    0.5848 H         1 DLB1        0.0000
     37 H26        -6.1879    1.2504   -1.8326 H         1 DLB1        0.0000
     38 H27        -4.5821    3.1062   -1.6355 H         1 DLB1        0.0000
     39 H282       -6.5189   -1.1506   -1.7308 H         1 DLB1        0.0000
     40 H283       -5.4695   -2.1735   -0.7204 H         1 DLB1        0.0000
     41 H12         0.3296    0.9800    2.4547 H         1 DLB1        0.0000
     42 H13         1.4325    2.3698    2.6140 H         1 DLB1        0.0000
     43 H22        -0.9723    3.0392    2.2225 H         1 DLB1        0.0000
     44 H23         0.1432    3.6455    0.9746 H         1 DLB1        0.0000
     45 H42         0.2331    2.5028   -1.2719 H         1 DLB1        0.0000
     46 H43        -0.8210    1.1037   -1.5875 H         1 DLB1        0.0000
     47 H52         0.4259   -0.2584    0.0180 H         1 DLB1        0.0000
     48 H53         1.5800    0.4690   -1.1276 H         1 DLB1        0.0000
     49 H9          3.0497    1.1305   -1.3292 H         1 DLB1        0.0000
     50 H121        3.9831   -3.3703   -1.7591 H         1 DLB1        0.0000
     51 H14         6.1676   -2.2014    1.7147 H         1 DLB1        0.0000
     52 H292       -6.5121   -1.2264    1.3208 H         1 DLB1        0.0000
     53 H293       -7.5615   -0.2035    0.3104 H         1 DLB1        0.0000
     54 H181        6.4562    2.3633   -2.0582 H         1 DLB1        0.0000
     55 H182        5.9660    0.6596   -1.9006 H         1 DLB1        0.0000
     56 H183        4.9221    1.8091   -2.7708 H         1 DLB1        0.0000
     57 H191        5.2273    4.1385   -0.7967 H         1 DLB1        0.0000
     58 H192        3.6943    3.5829   -1.5100 H         1 DLB1        0.0000
     59 H193        3.8634    3.6969    0.2583 H         1 DLB1        0.0000
@<TRIPOS>BOND
     1   11   14 1
     2   14   29 1
     3    5    6 1
     4   10   11 2
     5    9   10 1
     6   15   16 1
     7   16   17 1
     8    9   28 1
     9   17   28 1
    10   11   12 1
    11    8    9 2
    12   15   20 1
    13   30   32 2
    14    5   23 1
    15   21   23 1
    16    1   23 1
    17   29   30 1
    18    5    7 1
    19   17   27 1
    20   17   18 1
    21   20   21 1
    22   19   20 1
    23   30   31 1
    24    1    4 2
    25    4   25 1
    26   21   22 2
    27   18   19 1
    28   12   13 2
    29    8   27 1
    30    8   13 1
    31    1    2 1
    32    3   25 2
    33    2   24 2
    34    3   24 1
    35    3   26 1
    36   33    2 1
    37   34    4 1
    38   35    5 1
    39   36   10 1
    40   37   12 1
    41   38   13 1
    42   39   14 1
    43   40   14 1
    44   41   15 1
    45   42   15 1
    46   43   16 1
    47   44   16 1
    48   45   18 1
    49   46   18 1
    50   47   19 1
    51   48   19 1
    52   49   23 1
    53   50   24 1
    54   51   25 1
    55   52   29 1
    56   53   29 1
    57   54    6 1
    58   55    6 1
    59   56    6 1
    60   57    7 1
    61   58    7 1
    62   59    7 1
@<TRIPOS>SUBSTRUCTURE
     1 DLB1        1 RESIDUE           4 A     DLB     0 ROOT
