# created with PyMOL 2.3.5
@<TRIPOS>MOLECULE
TAR
16 15 1                 
SMALL
USER_CHARGES
@<TRIPOS>ATOM
1	  O1	2.582	-0.757	-0.359	O.co2	1	TAR0	0.000	
2	 O11	2.410	1.226	0.600	O.3	1	TAR0	0.000	
3	  C1	1.900	0.208	-0.111	C.2	1	TAR0	0.000	
4	  C2	0.475	0.270	-0.599	C.3	1	TAR0	0.000	
5	  O2	0.204	-0.866	-1.423	O.3	1	TAR0	0.000	
6	  C3	-0.475	0.270	0.599	C.3	1	TAR0	0.000	
7	  O3	-0.204	-0.866	1.422	O.3	1	TAR0	0.000	
8	  C4	-1.900	0.208	0.111	C.2	1	TAR0	0.000	
9	  O4	-2.582	-0.758	0.359	O.co2	1	TAR0	0.000	
10	 O41	-2.410	1.226	-0.600	O.3	1	TAR0	0.000	
11	 HO1	3.328	1.141	0.891	 H	1	TAR0	0.000	
12	  H2	0.329	1.182	-1.179	 H	1	TAR0	0.000	
13	 HO2	0.314	-1.714	-0.971	 H	1	TAR0	0.000	
14	  H3	-0.329	1.182	1.179	 H	1	TAR0	0.000	
15	 HO3	-0.314	-1.714	0.971	 H	1	TAR0	0.000	
16	 HO4	-3.328	1.141	-0.891	 H	1	TAR0	0.000	
@<TRIPOS>BOND
1 1 3 2
2 2 3 1
3 2 11 1
4 3 4 1
5 4 5 1
6 4 6 1
7 4 12 1
8 5 13 1
9 6 7 1
10 6 8 1
11 6 14 1
12 7 15 1
13 8 9 2
14 8 10 1
15 10 16 1
@<TRIPOS>SUBSTRUCTURE
1	TAR0	1	GROUP	1 ****	TAR
