# created with PyMOL 2.3.5
@<TRIPOS>MOLECULE
9GF
67 68 1 0 0
SMALL
USER_CHARGES


@<TRIPOS>ATOM
      1 CAA         9.4380    0.4620   -1.7630 C.3       1 9GF1        0.0000
      2 CAB         7.9440    0.3050   -2.0580 C.3       1 9GF1        0.0000
      3 CAC         7.1730    0.1980   -0.7410 C.3       1 9GF1        0.0000
      4 CAD         5.6800    0.0410   -1.0360 C.3       1 9GF1        0.0000
      5 CAE         4.9080   -0.0670    0.2800 C.3       1 9GF1        0.0000
      6 CAF         3.4150   -0.2240   -0.0150 C.3       1 9GF1        0.0000
      7 CAG         2.6440   -0.3320    1.3020 C.3       1 9GF1        0.0000
      8 CAH         3.1390   -1.5490    2.0850 C.3       1 9GF1        0.0000
      9 CAI         2.8690    0.9340    2.1310 C.3       1 9GF1        0.0000
     10 CAJ         1.1730   -0.4870    1.0110 C.2       1 9GF1        0.0000
     11 CAK         0.7260   -0.5120   -0.2970 C.2       1 9GF1        0.0000
     12 CAL        -0.6220   -0.6530   -0.5670 C.2       1 9GF1        0.0000
     13 CAM        -1.5270   -0.7700    0.4700 C.2       1 9GF1        0.0000
     14 CAN        -2.9970   -0.9240    0.1750 C.3       1 9GF1        0.0000
     15 CAO        -3.2210   -2.1890   -0.6550 C.3       1 9GF1        0.0000
     16 CAP        -4.7130   -2.3460   -0.9540 C.3       1 9GF1        0.0000
     17 CAR        -5.2060   -1.1280   -1.7390 C.3       1 9GF1        0.0000
     18 CAS        -4.9820    0.1380   -0.9090 C.3       1 9GF1        0.0000
     19 CAT        -3.4900    0.2940   -0.6100 C.3       1 9GF1        0.0000
     20 CAU        -3.2660    1.5600    0.2200 C.3       1 9GF1        0.0000
     21 CAV        -3.6430    2.7880   -0.6120 C.3       1 9GF1        0.0000
     22 CAW        -3.4190    4.0540    0.2180 C.3       1 9GF1        0.0000
     23 CAY        -1.0810   -0.7460    1.7840 C.2       1 9GF1        0.0000
     24 CBA         0.2730   -0.6090    2.0520 C.2       1 9GF1        0.0000
     25 OAQ        -4.9220   -3.5280   -1.7290 O.3       1 9GF1        0.0000
     26 OAX        -3.7710    5.2010   -0.5590 O.3       1 9GF1        0.0000
     27 OAZ        -1.9690   -0.8660    2.8060 O.3       1 9GF1        0.0000
     28 H1          9.9870    0.5390   -2.7010 H         1 9GF1        0.0000
     29 H2          9.5980    1.3640   -1.1730 H         1 9GF1        0.0000
     30 H3          9.7910   -0.4050   -1.2050 H         1 9GF1        0.0000
     31 H4          7.5910    1.1730   -2.6160 H         1 9GF1        0.0000
     32 H5          7.7840   -0.5970   -2.6480 H         1 9GF1        0.0000
     33 H6          7.5260   -0.6700   -0.1830 H         1 9GF1        0.0000
     34 H7          7.3340    1.1000   -0.1510 H         1 9GF1        0.0000
     35 H8          5.3270    0.9080   -1.5940 H         1 9GF1        0.0000
     36 H9          5.5190   -0.8620   -1.6270 H         1 9GF1        0.0000
     37 H10         5.2610   -0.9340    0.8380 H         1 9GF1        0.0000
     38 H11         5.0690    0.8350    0.8710 H         1 9GF1        0.0000
     39 H12         3.0620    0.6430   -0.5730 H         1 9GF1        0.0000
     40 H13         3.2540   -1.1260   -0.6050 H         1 9GF1        0.0000
     41 H14         4.2030   -1.4380    2.2950 H         1 9GF1        0.0000
     42 H15         2.5890   -1.6260    3.0230 H         1 9GF1        0.0000
     43 H16         2.9780   -2.4510    1.4950 H         1 9GF1        0.0000
     44 H17         3.9330    1.0460    2.3410 H         1 9GF1        0.0000
     45 H18         2.5160    1.8010    1.5720 H         1 9GF1        0.0000
     46 H19         2.3190    0.8570    3.0690 H         1 9GF1        0.0000
     47 H20         1.4320   -0.4200   -1.1090 H         1 9GF1        0.0000
     48 H21        -0.9690   -0.6710   -1.5900 H         1 9GF1        0.0000
     49 H22        -3.5490   -1.0000    1.1110 H         1 9GF1        0.0000
     50 H23        -2.6680   -2.1130   -1.5910 H         1 9GF1        0.0000
     51 H24        -2.8690   -3.0570   -0.0960 H         1 9GF1        0.0000
     52 H25        -5.2650   -2.4220   -0.0180 H         1 9GF1        0.0000
     53 H26        -4.6530   -1.0510   -2.6750 H         1 9GF1        0.0000
     54 H27        -6.2690   -1.2390   -1.9520 H         1 9GF1        0.0000
     55 H28        -5.3330    1.0050   -1.4680 H         1 9GF1        0.0000
     56 H29        -5.5350    0.0610    0.0270 H         1 9GF1        0.0000
     57 H30        -2.9370    0.3710   -1.5460 H         1 9GF1        0.0000
     58 H31        -3.8870    1.5230    1.1150 H         1 9GF1        0.0000
     59 H32        -2.2170    1.6250    0.5080 H         1 9GF1        0.0000
     60 H33        -3.0210    2.8250   -1.5060 H         1 9GF1        0.0000
     61 H34        -4.6920    2.7230   -0.9000 H         1 9GF1        0.0000
     62 H35        -4.0400    4.0160    1.1130 H         1 9GF1        0.0000
     63 H36        -2.3700    4.1180    0.5070 H         1 9GF1        0.0000
     64 H37         0.6220   -0.5900    3.0740 H         1 9GF1        0.0000
     65 H38        -5.8480   -3.6910   -1.9560 H         1 9GF1        0.0000
     66 H39        -3.6540    6.0410   -0.0950 H         1 9GF1        0.0000
     67 H40        -2.3190   -0.0230    3.1240 H         1 9GF1        0.0000
@<TRIPOS>BOND
     1   23   27 1
     2   23   24 2
     3   13   23 1
     4   10   24 1
     5   16   25 1
     6   15   16 1
     7   16   17 1
     8   14   15 1
     9   13   14 1
    10   14   19 1
    11    7    9 1
    12   12   13 2
    13   17   18 1
    14   19   20 1
    15   20   21 1
    16   18   19 1
    17    7   10 1
    18   10   11 2
    19    7    8 1
    20    6    7 1
    21   11   12 1
    22   21   22 1
    23   22   26 1
    24    5    6 1
    25    4    5 1
    26    3    4 1
    27    2    3 1
    28    1    2 1
    29    1   28 1
    30    1   29 1
    31    1   30 1
    32    2   31 1
    33    2   32 1
    34    3   33 1
    35    3   34 1
    36    4   35 1
    37    4   36 1
    38    5   37 1
    39    5   38 1
    40    6   39 1
    41    6   40 1
    42    8   41 1
    43    8   42 1
    44    8   43 1
    45    9   44 1
    46    9   45 1
    47    9   46 1
    48   11   47 1
    49   12   48 1
    50   14   49 1
    51   15   50 1
    52   15   51 1
    53   16   52 1
    54   17   53 1
    55   17   54 1
    56   18   55 1
    57   18   56 1
    58   19   57 1
    59   20   58 1
    60   20   59 1
    61   21   60 1
    62   21   61 1
    63   22   62 1
    64   22   63 1
    65   24   64 1
    66   25   65 1
    67   26   66 1
    68   27   67 1
@<TRIPOS>SUBSTRUCTURE
     1 9GF1        1 RESIDUE           4 A     9GF     0 ROOT
