@<TRIPOS>MOLECULE
Y01
70 76 2 0 0
SMALL
NO_CHARGES


@<TRIPOS>ATOM
      1 CAA       112.3310  153.3900  116.5970 C.3       1 Y01541      0.0000
      2 CBA       112.0170  151.9110  116.7590 C.3       1 Y01541      0.0000
      3 CAB       112.3340  151.4520  118.1740 C.3       1 Y01541      0.0000
      4 CAN       112.7560  151.0680  115.7220 C.3       1 Y01541      0.0000
      5 CAJ       112.4940  149.5830  115.7810 C.3       1 Y01541      0.0000
      6 CAO       113.0950  148.8300  114.6200 C.3       1 Y01541      0.0000
      7 CBB       112.4070  149.0550  113.2650 C.3       1 Y01541      0.0000
      8 CAC       111.4120  150.2080  113.3540 C.3       1 Y01541      0.0000
      9 CBE       113.4590  149.2550  112.1610 C.3       1 Y01541      0.0000
     10 CAP       114.8790  149.4860  112.7430 C.3       1 Y01541      0.0000
     11 CAQ       115.8870  148.9100  111.7290 C.3       1 Y01541      0.0000
     12 CBG       115.0350  148.5560  110.5130 C.3       1 Y01541      0.0000
     13 CBI       113.6770  148.1330  111.1040 C.3       1 Y01541      0.0000
     14 CAE       113.7450  146.7650  111.8000 C.3       1 Y01541      0.0000
     15 CAU       112.6900  148.0930  109.9340 C.3       1 Y01541      0.0000
     16 CAS       113.1650  147.1400  108.8310 C.3       1 Y01541      0.0000
     17 CBF       114.5860  147.4340  108.3230 C.3       1 Y01541      0.0000
     18 CBD       115.5950  147.5940  109.4760 C.3       1 Y01541      0.0000
     19 CAK       116.9290  148.0970  108.9340 C.3       1 Y01541      0.0000
     20 CAI       117.3080  147.4590  107.6360 C.2       1 Y01541      0.0000
     21 CAZ       116.5330  146.6490  106.9300 C.2       1 Y01541      0.0000
     22 CAV       117.0760  145.9070  105.7270 C.3       1 Y01541      0.0000
     23 CBH       115.0670  146.4010  107.2650 C.3       1 Y01541      0.0000
     24 CAD       114.9270  144.9570  107.7800 C.3       1 Y01541      0.0000
     25 CAT       114.2400  146.5760  105.9720 C.3       1 Y01541      0.0000
     26 CAR       114.7900  145.7890  104.7820 C.3       1 Y01541      0.0000
     27 CBC       116.2270  146.1370  104.5000 C.3       1 Y01541      0.0000
     28 OAW       116.7240  145.2460  103.4590 O.3       1 Y01541      0.0000
     29 CAY       117.5420  145.7470  102.5420 C.2       1 Y01541      0.0000
     30 OAG       117.2430  146.6390  101.8020 O.2       1 Y01541      0.0000
     31 CAM       118.8790  145.0600  102.5450 C.3       1 Y01541      0.0000
     32 CAL       119.7160  145.2340  103.7970 C.3       1 Y01541      0.0000
     33 CAX       121.1190  145.7620  103.5550 C.2       1 Y01541      0.0000
     34 OAH       122.0660  145.2140  104.1510 O.co2     1 Y01541      0.0000
     35 OAF       121.2620  146.7220  102.7710 O.co2     1 Y01541      0.0000
     36 CAA       115.7160  126.8780  134.6040 C.3       2 Y01542      0.0000
     37 CBA       115.5190  126.3170  133.2040 C.3       2 Y01542      0.0000
     38 CAB       114.6680  125.0570  133.2510 C.3       2 Y01542      0.0000
     39 CAN       116.8570  126.0620  132.5100 C.3       2 Y01542      0.0000
     40 CAJ       116.8520  126.2020  131.0080 C.3       2 Y01542      0.0000
     41 CAO       116.6890  124.8850  130.2910 C.3       2 Y01542      0.0000
     42 CBB       117.5020  124.7320  128.9970 C.3       2 Y01542      0.0000
     43 CAC       118.9970  124.8120  129.2890 C.3       2 Y01542      0.0000
     44 CBE       117.1030  123.4340  128.2750 C.3       2 Y01542      0.0000
     45 CAP       115.5650  123.2190  128.2780 C.3       2 Y01542      0.0000
     46 CAQ       115.2070  122.4690  126.9800 C.3       2 Y01542      0.0000
     47 CBG       116.5620  122.0640  126.4070 C.3       2 Y01542      0.0000
     48 CBI       117.4970  123.2300  126.7830 C.3       2 Y01542      0.0000
     49 CAE       117.1910  124.5030  125.9800 C.3       2 Y01542      0.0000
     50 CAU       118.9280  122.7540  126.5120 C.3       2 Y01542      0.0000
     51 CAS       119.1070  122.2820  125.0630 C.3       2 Y01542      0.0000
     52 CBF       118.0970  121.2000  124.6460 C.3       2 Y01542      0.0000
     53 CBD       116.6480  121.6190  124.9540 C.3       2 Y01542      0.0000
     54 CAK       115.6940  120.4570  124.6920 C.3       2 Y01542      0.0000
     55 CAI       116.0120  119.7100  123.4360 C.2       2 Y01542      0.0000
     56 CAZ       117.1860  119.7300  122.8230 C.2       2 Y01542      0.0000
     57 CAV       117.5070  118.7440  121.7200 C.3       2 Y01542      0.0000
     58 CBH       118.2860  120.7220  123.1780 C.3       2 Y01542      0.0000
     59 CAD       118.2320  121.8930  122.1800 C.3       2 Y01542      0.0000
     60 CAT       119.6370  119.9830  123.0550 C.3       2 Y01542      0.0000
     61 CAR       119.5100  118.4630  123.1760 C.3       2 Y01542      0.0000
     62 CBC       118.6960  117.8710  122.0550 C.3       2 Y01542      0.0000
     63 OAW       119.5220  117.7690  120.8580 O.3       2 Y01542      0.0000
     64 CAY       120.5610  116.9390  120.8800 C.2       2 Y01542      0.0000
     65 OAG       121.6960  117.2900  120.7360 O.2       2 Y01542      0.0000
     66 CAM       120.1410  115.5120  121.1040 C.3       2 Y01542      0.0000
     67 CAL       121.2500  114.5460  121.4750 C.3       2 Y01542      0.0000
     68 CAX       120.7830  113.1590  121.8830 C.2       2 Y01542      0.0000
     69 OAH       121.2120  112.6830  122.9520 O.co2     2 Y01542      0.0000
     70 OAF       119.9920  112.5580  121.1300 O.co2     2 Y01542      0.0000
@<TRIPOS>BOND
     1    1    2 1
     2    2    3 1
     3    2    4 1
     4    4    5 1
     5    5    6 1
     6    6    7 1
     7    7    8 1
     8    7    9 1
     9    9   10 1
    10    9   13 1
    11   10   11 1
    12   11   12 1
    13   12   13 1
    14   12   18 1
    15   13   14 1
    16   13   15 1
    17   15   16 1
    18   16   17 1
    19   17   18 1
    20   17   23 1
    21   18   19 1
    22   19   20 1
    23   20   21 2
    24   21   22 1
    25   21   23 1
    26   22   27 1
    27   23   24 1
    28   23   25 1
    29   25   26 1
    30   26   27 1
    31   27   28 1
    32   28   29 1
    33   29   30 2
    34   29   31 1
    35   31   32 1
    36   32   33 1
    37   33   34 2
    38   33   35 2
    39   36   37 1
    40   37   38 1
    41   37   39 1
    42   39   40 1
    43   40   41 1
    44   41   42 1
    45   42   43 1
    46   42   44 1
    47   44   45 1
    48   44   48 1
    49   45   46 1
    50   46   47 1
    51   47   48 1
    52   47   53 1
    53   48   49 1
    54   48   50 1
    55   50   51 1
    56   51   52 1
    57   52   53 1
    58   52   58 1
    59   53   54 1
    60   54   55 1
    61   55   56 2
    62   56   57 1
    63   56   58 1
    64   57   62 1
    65   58   59 1
    66   58   60 1
    67   60   61 1
    68   61   62 1
    69   62   63 1
    70   63   64 1
    71   64   65 2
    72   64   66 1
    73   66   67 1
    74   67   68 1
    75   68   69 2
    76   68   70 2
@<TRIPOS>SUBSTRUCTURE
     1 Y01541      1 RESIDUE           4 R     Y01     0 ROOT
     2 Y01542     36 RESIDUE           4 R     Y01     0 ROOT
