@<TRIPOS>MOLECULE
Y01
35 38 1 0 0
SMALL
NO_CHARGES


@<TRIPOS>ATOM
      1 CAA       112.4110  116.1540  109.3770 C.3       1 Y01630      0.0000
      2 CBA       111.0490  115.5100  109.2710 C.3       1 Y01630      0.0000
      3 CAB       111.0700  114.1420  109.9780 C.3       1 Y01630      0.0000
      4 CAN       109.9860  116.4310  109.9470 C.3       1 Y01630      0.0000
      5 CAJ       110.4390  116.7790  111.3870 C.3       1 Y01630      0.0000
      6 CAO       109.2990  117.6160  112.1070 C.3       1 Y01630      0.0000
      7 CBB       109.8320  118.2050  113.4270 C.3       1 Y01630      0.0000
      8 CAC       111.0740  117.4630  113.8550 C.3       1 Y01630      0.0000
      9 CBE       110.1720  119.7340  113.2270 C.3       1 Y01630      0.0000
     10 CAP       109.7250  120.2050  111.7490 C.3       1 Y01630      0.0000
     11 CAQ       108.9360  121.6430  111.9590 C.3       1 Y01630      0.0000
     12 CBG       109.3870  121.9590  113.2940 C.3       1 Y01630      0.0000
     13 CBI       109.3820  120.5060  114.0460 C.3       1 Y01630      0.0000
     14 CAE       107.9710  119.9560  114.0860 C.3       1 Y01630      0.0000
     15 CAU       109.9040  120.7930  115.5450 C.2       1 Y01630      0.0000
     16 CAS       109.1170  121.6810  116.0850 C.2       1 Y01630      0.0000
     17 CBF       109.0930  122.9130  115.5020 C.3       1 Y01630      0.0000
     18 CBD       108.4830  122.9000  114.1830 C.3       1 Y01630      0.0000
     19 CAK       108.5020  124.3360  113.5950 C.3       1 Y01630      0.0000
     20 CAI       108.5350  125.4710  114.6580 C.2       1 Y01630      0.0000
     21 CAZ       108.2020  125.2710  115.9060 C.2       1 Y01630      0.0000
     22 CAV       107.5630  126.4050  116.7270 C.3       1 Y01630      0.0000
     23 CBH       108.2310  123.9770  116.4910 C.3       1 Y01630      0.0000
     24 CAD       106.8040  123.4670  116.6610 C.3       1 Y01630      0.0000
     25 CAT       108.8940  124.0570  117.8370 C.3       1 Y01630      0.0000
     26 CAR       108.2490  125.1130  118.8000 C.3       1 Y01630      0.0000
     27 CBC       108.1900  126.5180  118.1360 C.3       1 Y01630      0.0000
     28 OAW       107.4200  127.3610  118.9140 O.3       1 Y01630      0.0000
     29 CAY       107.9830  128.6570  119.0930 C.2       1 Y01630      0.0000
     30 OAG       107.7320  129.2840  120.0710 O.2       1 Y01630      0.0000
     31 CAM       108.9310  129.2550  118.0030 C.3       1 Y01630      0.0000
     32 CAL       109.4460  130.6280  118.4680 C.3       1 Y01630      0.0000
     33 CAX       110.4180  131.1890  117.4290 C.2       1 Y01630      0.0000
     34 OAH       110.9390  132.3170  117.6020 O.co2     1 Y01630      0.0000
     35 OAF       110.6930  130.5230  116.4060 O.co2     1 Y01630      0.0000
@<TRIPOS>BOND
     1    1    2 1
     2    2    3 1
     3    2    4 1
     4    4    5 1
     5    5    6 1
     6    6    7 1
     7    7    8 1
     8    7    9 1
     9    9   10 1
    10    9   13 1
    11   10   11 1
    12   11   12 1
    13   12   13 1
    14   12   18 1
    15   13   14 1
    16   13   15 1
    17   15   16 2
    18   16   17 1
    19   17   18 1
    20   17   23 1
    21   18   19 1
    22   19   20 1
    23   20   21 2
    24   21   22 1
    25   21   23 1
    26   22   27 1
    27   23   24 1
    28   23   25 1
    29   25   26 1
    30   26   27 1
    31   27   28 1
    32   28   29 1
    33   29   30 2
    34   29   31 1
    35   31   32 1
    36   32   33 1
    37   33   34 2
    38   33   35 2
@<TRIPOS>SUBSTRUCTURE
     1 Y01630      1 RESIDUE           4 R     Y01     0 ROOT
