@<TRIPOS>MOLECULE
Y01
35 38 1 0 0
SMALL
NO_CHARGES


@<TRIPOS>ATOM
      1 CAA       120.8660  125.4490   97.8130 C.3       1 Y01495      0.0000
      2 CBA       121.6430  124.9830   99.0440 C.3       1 Y01495      0.0000
      3 CAB       122.9940  125.6970   99.0720 C.3       1 Y01495      0.0000
      4 CAN       121.8570  123.4720   98.9620 C.3       1 Y01495      0.0000
      5 CAJ       122.6100  122.9790  100.1960 C.3       1 Y01495      0.0000
      6 CAO       121.6690  123.0350  101.3960 C.3       1 Y01495      0.0000
      7 CBB       122.4070  122.6890  102.6860 C.3       1 Y01495      0.0000
      8 CAC       123.3930  123.8240  102.9470 C.3       1 Y01495      0.0000
      9 CBE       121.4000  122.5250  103.8650 C.3       1 Y01495      0.0000
     10 CAP       120.1460  121.7280  103.4080 C.3       1 Y01495      0.0000
     11 CAQ       119.7720  120.6880  104.5770 C.3       1 Y01495      0.0000
     12 CBG       120.5930  121.3290  105.7230 C.3       1 Y01495      0.0000
     13 CBI       121.9020  121.7850  105.0630 C.3       1 Y01495      0.0000
     14 CAE       122.7460  120.5650  104.6690 C.3       1 Y01495      0.0000
     15 CAU       122.6130  122.6330  106.1320 C.3       1 Y01495      0.0000
     16 CAS       122.7840  121.8660  107.3950 C.3       1 Y01495      0.0000
     17 CBF       121.5260  121.2860  107.9570 C.3       1 Y01495      0.0000
     18 CBD       120.8400  120.4360  106.8880 C.3       1 Y01495      0.0000
     19 CAK       119.4260  120.0880  107.5170 C.3       1 Y01495      0.0000
     20 CAI       119.7200  119.3150  108.8550 C.2       1 Y01495      0.0000
     21 CAZ       120.7400  119.5420  109.5780 C.2       1 Y01495      0.0000
     22 CAV       120.8990  118.7950  110.8990 C.3       1 Y01495      0.0000
     23 CBH       121.8450  120.3950  109.1870 C.3       1 Y01495      0.0000
     24 CAD       123.0030  119.4680  108.8160 C.3       1 Y01495      0.0000
     25 CAT       122.2930  121.2230  110.4520 C.3       1 Y01495      0.0000
     26 CAR       121.1620  121.3110  111.4890 C.3       1 Y01495      0.0000
     27 CBC       120.8470  119.8840  112.0070 C.3       1 Y01495      0.0000
     28 OAW       121.6790  119.5540  113.0770 O.3       1 Y01495      0.0000
     29 CAY       121.1200  119.8590  114.3280 C.2       1 Y01495      0.0000
     30 OAG       119.9450  119.9630  114.4520 O.2       1 Y01495      0.0000
     31 CAM       122.0130  120.0430  115.5510 C.3       1 Y01495      0.0000
     32 CAL       122.8730  118.7950  115.7420 C.3       1 Y01495      0.0000
     33 CAX       123.7220  118.9530  117.0000 C.2       1 Y01495      0.0000
     34 OAH       124.5140  118.0370  117.3420 O.co2     1 Y01495      0.0000
     35 OAF       123.6270  119.9970  117.6980 O.co2     1 Y01495      0.0000
@<TRIPOS>BOND
     1    1    2 1
     2    2    3 1
     3    2    4 1
     4    4    5 1
     5    5    6 1
     6    6    7 1
     7    7    8 1
     8    7    9 1
     9    9   10 1
    10    9   13 1
    11   10   11 1
    12   11   12 1
    13   12   13 1
    14   12   18 1
    15   13   14 1
    16   13   15 1
    17   15   16 1
    18   16   17 1
    19   17   18 1
    20   17   23 1
    21   18   19 1
    22   19   20 1
    23   20   21 2
    24   21   22 1
    25   21   23 1
    26   22   27 1
    27   23   24 1
    28   23   25 1
    29   25   26 1
    30   26   27 1
    31   27   28 1
    32   28   29 1
    33   29   30 2
    34   29   31 1
    35   31   32 1
    36   32   33 1
    37   33   34 2
    38   33   35 2
@<TRIPOS>SUBSTRUCTURE
     1 Y01495      1 RESIDUE           4 R     Y01     0 ROOT
