@<TRIPOS>MOLECULE
Y01
35 38 1 0 0
SMALL
NO_CHARGES


@<TRIPOS>ATOM
      1 CAA       100.6740  119.9680  114.4690 C.3       1 Y01495      0.0000
      2 CBA       101.7430  118.8900  114.2810 C.3       1 Y01495      0.0000
      3 CAB       102.8750  119.4100  113.3980 C.3       1 Y01495      0.0000
      4 CAN       101.1240  117.6370  113.6630 C.3       1 Y01495      0.0000
      5 CAJ       100.5270  117.9460  112.2920 C.3       1 Y01495      0.0000
      6 CAO        99.3250  117.0250  112.0500 C.3       1 Y01495      0.0000
      7 CBB        99.1620  116.6210  110.5790 C.3       1 Y01495      0.0000
      8 CAC        99.2870  117.8690  109.7010 C.3       1 Y01495      0.0000
      9 CBE       100.1620  115.4940  110.1590 C.3       1 Y01495      0.0000
     10 CAP       100.3370  114.4390  111.2870 C.3       1 Y01495      0.0000
     11 CAQ       100.4130  112.9850  110.6000 C.3       1 Y01495      0.0000
     12 CBG       100.6080  113.4140  109.1240 C.3       1 Y01495      0.0000
     13 CBI        99.7490  114.6760  108.9770 C.3       1 Y01495      0.0000
     14 CAE        98.2570  114.3140  109.0570 C.3       1 Y01495      0.0000
     15 CAU       100.1070  115.2460  107.5930 C.3       1 Y01495      0.0000
     16 CAS        99.9140  114.2440  106.5110 C.3       1 Y01495      0.0000
     17 CBF       100.5490  112.9120  106.7360 C.3       1 Y01495      0.0000
     18 CBD       100.1960  112.3880  108.1230 C.3       1 Y01495      0.0000
     19 CAK       101.0030  111.0320  108.3760 C.3       1 Y01495      0.0000
     20 CAI       100.9850  110.1930  107.0350 C.2       1 Y01495      0.0000
     21 CAZ       100.5490  110.6010  105.9090 C.2       1 Y01495      0.0000
     22 CAV       100.6130  109.6360  104.7350 C.3       1 Y01495      0.0000
     23 CBH       100.0010  111.9160  105.6940 C.3       1 Y01495      0.0000
     24 CAD        98.4750  111.8580  105.7790 C.3       1 Y01495      0.0000
     25 CAT       100.3990  112.4560  104.2770 C.3       1 Y01495      0.0000
     26 CAR       101.6200  111.7630  103.6550 C.3       1 Y01495      0.0000
     27 CBC       101.5220  110.2250  103.6440 C.3       1 Y01495      0.0000
     28 OAW       101.0260  109.8310  102.4030 O.3       1 Y01495      0.0000
     29 CAY       101.9210  109.0690  101.6430 C.2       1 Y01495      0.0000
     30 OAG       102.6050  108.2590  102.1680 O.2       1 Y01495      0.0000
     31 CAM       102.0180  109.2810  100.1340 C.3       1 Y01495      0.0000
     32 CAL       101.2690  108.1590   99.4170 C.3       1 Y01495      0.0000
     33 CAX       102.2420  107.0370   99.0660 C.2       1 Y01495      0.0000
     34 OAH       102.8190  107.0300   97.9470 O.co2     1 Y01495      0.0000
     35 OAF       102.4640  106.1150   99.8940 O.co2     1 Y01495      0.0000
@<TRIPOS>BOND
     1    1    2 1
     2    2    3 1
     3    2    4 1
     4    4    5 1
     5    5    6 1
     6    6    7 1
     7    7    8 1
     8    7    9 1
     9    9   10 1
    10    9   13 1
    11   10   11 1
    12   11   12 1
    13   12   13 1
    14   12   18 1
    15   13   14 1
    16   13   15 1
    17   15   16 1
    18   16   17 1
    19   17   18 1
    20   17   23 1
    21   18   19 1
    22   19   20 1
    23   20   21 2
    24   21   22 1
    25   21   23 1
    26   22   27 1
    27   23   24 1
    28   23   25 1
    29   25   26 1
    30   26   27 1
    31   27   28 1
    32   28   29 1
    33   29   30 2
    34   29   31 1
    35   31   32 1
    36   32   33 1
    37   33   34 2
    38   33   35 2
@<TRIPOS>SUBSTRUCTURE
     1 Y01495      1 RESIDUE           4 R     Y01     0 ROOT
