# created with PyMOL 2.3.5
@<TRIPOS>MOLECULE
Y01
85 88 1                 
SMALL
USER_CHARGES
@<TRIPOS>ATOM
1	 CAA	-9.963	-0.268	-2.401	C.3	1	Y010	0.000	
2	 CBA	-10.228	0.248	-0.985	C.3	1	Y010	0.000	
3	 CAB	-11.613	-0.214	-0.526	C.3	1	Y010	0.000	
4	 CAN	-9.165	-0.305	-0.034	C.3	1	Y010	0.000	
5	 CAJ	-7.795	0.257	-0.418	C.3	1	Y010	0.000	
6	 CAO	-6.732	-0.295	0.533	C.3	1	Y010	0.000	
7	 CBB	-5.362	0.267	0.148	C.3	1	Y010	0.000	
8	 CAC	-5.352	1.781	0.366	C.3	1	Y010	0.000	
9	 CBE	-4.282	-0.380	1.019	C.3	1	Y010	0.000	
10	 CAP	-4.251	-1.911	0.785	C.3	1	Y010	0.000	
11	 CAQ	-2.808	-2.255	0.324	C.3	1	Y010	0.000	
12	 CBG	-1.981	-1.097	0.895	C.3	1	Y010	0.000	
13	 CBI	-2.901	0.119	0.606	C.3	1	Y010	0.000	
14	 CAE	-2.889	0.435	-0.891	C.3	1	Y010	0.000	
15	 CAU	-2.346	1.294	1.389	C.3	1	Y010	0.000	
16	 CAS	-0.962	1.613	0.803	C.3	1	Y010	0.000	
17	 CBF	-0.030	0.406	0.864	C.3	1	Y010	0.000	
18	 CBD	-0.654	-0.832	0.207	C.3	1	Y010	0.000	
19	 CAK	0.287	-2.021	0.437	C.3	1	Y010	0.000	
20	 CAI	1.650	-1.682	-0.093	C.2	1	Y010	0.000	
21	 CAZ	2.092	-0.463	-0.188	C.2	1	Y010	0.000	
22	 CAV	3.493	-0.245	-0.732	C.3	1	Y010	0.000	
23	 CBH	1.296	0.747	0.205	C.3	1	Y010	0.000	
24	 CAD	1.006	1.559	-1.059	C.3	1	Y010	0.000	
25	 CAT	2.134	1.627	1.137	C.3	1	Y010	0.000	
26	 CAR	3.472	1.946	0.468	C.3	1	Y010	0.000	
27	 CBC	4.258	0.652	0.245	C.3	1	Y010	0.000	
28	 OAW	5.563	0.968	-0.307	O.3	1	Y010	0.000	
29	 CAY	6.570	0.132	-0.008	C.2	1	Y010	0.000	
30	 OAG	6.367	-0.832	0.692	O.co2	1	Y010	0.000	
31	 CAM	7.953	0.395	-0.546	C.3	1	Y010	0.000	
32	 CAL	8.906	-0.699	-0.060	C.3	1	Y010	0.000	
33	 CAX	10.289	-0.435	-0.597	C.2	1	Y010	0.000	
34	 OAH	11.295	-1.271	-0.299	O.3	1	Y010	0.000	
35	 OAF	10.491	0.529	-1.297	O.co2	1	Y010	0.000	
36	HAA1	-8.976	0.061	-2.728	 H	1	Y010	0.000	
37	HAA2	-10.002	-1.357	-2.405	 H	1	Y010	0.000	
38	HAA3	-10.720	0.126	-3.079	 H	1	Y010	0.000	
39	 HBA	-10.189	1.337	-0.982	 H	1	Y010	0.000	
40	HAB1	-11.652	-1.303	-0.530	 H	1	Y010	0.000	
41	HAB2	-11.802	0.153	0.483	 H	1	Y010	0.000	
42	HAB3	-12.370	0.180	-1.204	 H	1	Y010	0.000	
43	HAN1	-9.404	-0.011	0.988	 H	1	Y010	0.000	
44	HAN2	-9.144	-1.392	-0.104	 H	1	Y010	0.000	
45	HAJ1	-7.556	-0.036	-1.441	 H	1	Y010	0.000	
46	HAJ2	-7.815	1.345	-0.348	 H	1	Y010	0.000	
47	HAO1	-6.971	-0.001	1.555	 H	1	Y010	0.000	
48	HAO2	-6.711	-1.383	0.463	 H	1	Y010	0.000	
49	 HBB	-5.161	0.049	-0.901	 H	1	Y010	0.000	
50	HAC1	-4.376	2.182	0.092	 H	1	Y010	0.000	
51	HAC2	-6.121	2.242	-0.254	 H	1	Y010	0.000	
52	HAC3	-5.552	1.999	1.415	 H	1	Y010	0.000	
53	 HBE	-4.465	-0.162	2.071	 H	1	Y010	0.000	
54	HAP1	-4.483	-2.435	1.712	 H	1	Y010	0.000	
55	HAP2	-4.967	-2.186	0.010	 H	1	Y010	0.000	
56	HAQ1	-2.484	-3.205	0.748	 H	1	Y010	0.000	
57	HAQ2	-2.745	-2.274	-0.763	 H	1	Y010	0.000	
58	 HBG	-1.844	-1.223	1.969	 H	1	Y010	0.000	
59	 HBD	-0.809	-0.657	-0.857	 H	1	Y010	0.000	
60	HAE1	-3.611	1.224	-1.102	 H	1	Y010	0.000	
61	HAE2	-1.893	0.766	-1.185	 H	1	Y010	0.000	
62	HAE3	-3.155	-0.460	-1.453	 H	1	Y010	0.000	
63	HAU1	-3.003	2.157	1.280	 H	1	Y010	0.000	
64	HAU2	-2.252	1.027	2.442	 H	1	Y010	0.000	
65	HAS1	-1.078	1.920	-0.236	 H	1	Y010	0.000	
66	HAS2	-0.518	2.433	1.367	 H	1	Y010	0.000	
67	 HBF	0.167	0.177	1.912	 H	1	Y010	0.000	
68	HAK1	0.354	-2.231	1.504	 H	1	Y010	0.000	
69	HAK2	-0.099	-2.897	-0.085	 H	1	Y010	0.000	
70	 HAI	2.293	-2.489	-0.411	 H	1	Y010	0.000	
71	HAV1	4.003	-1.204	-0.826	 H	1	Y010	0.000	
72	HAV2	3.437	0.238	-1.708	 H	1	Y010	0.000	
73	 HBC	4.381	0.133	1.195	 H	1	Y010	0.000	
74	HAD1	0.476	2.473	-0.790	 H	1	Y010	0.000	
75	HAD2	1.945	1.815	-1.550	 H	1	Y010	0.000	
76	HAD3	0.391	0.968	-1.738	 H	1	Y010	0.000	
77	HAT1	1.599	2.554	1.340	 H	1	Y010	0.000	
78	HAT2	2.313	1.098	2.073	 H	1	Y010	0.000	
79	HAR1	3.292	2.431	-0.491	 H	1	Y010	0.000	
80	HAR2	4.048	2.614	1.109	 H	1	Y010	0.000	
81	HAM1	7.925	0.395	-1.635	 H	1	Y010	0.000	
82	HAM2	8.302	1.365	-0.191	 H	1	Y010	0.000	
83	HAL1	8.933	-0.699	1.030	 H	1	Y010	0.000	
84	HAL2	8.557	-1.668	-0.414	 H	1	Y010	0.000	
85	 HAH	12.165	-1.061	-0.666	 H	1	Y010	0.000	
@<TRIPOS>BOND
1 1 2 1
2 2 3 1
3 2 4 1
4 4 5 1
5 5 6 1
6 6 7 1
7 7 8 1
8 7 9 1
9 9 10 1
10 9 13 1
11 10 11 1
12 11 12 1
13 12 13 1
14 12 18 1
15 13 14 1
16 13 15 1
17 15 16 1
18 16 17 1
19 17 18 1
20 17 23 1
21 18 19 1
22 19 20 1
23 20 21 2
24 21 22 1
25 21 23 1
26 22 27 1
27 23 24 1
28 23 25 1
29 25 26 1
30 26 27 1
31 27 28 1
32 28 29 1
33 29 30 2
34 29 31 1
35 31 32 1
36 32 33 1
37 33 34 1
38 33 35 2
39 1 36 1
40 1 37 1
41 1 38 1
42 2 39 1
43 3 40 1
44 3 41 1
45 3 42 1
46 4 43 1
47 4 44 1
48 5 45 1
49 5 46 1
50 6 47 1
51 6 48 1
52 7 49 1
53 8 50 1
54 8 51 1
55 8 52 1
56 9 53 1
57 10 54 1
58 10 55 1
59 11 56 1
60 11 57 1
61 12 58 1
62 18 59 1
63 14 60 1
64 14 61 1
65 14 62 1
66 15 63 1
67 15 64 1
68 16 65 1
69 16 66 1
70 17 67 1
71 19 68 1
72 19 69 1
73 20 70 1
74 22 71 1
75 22 72 1
76 27 73 1
77 24 74 1
78 24 75 1
79 24 76 1
80 25 77 1
81 25 78 1
82 26 79 1
83 26 80 1
84 31 81 1
85 31 82 1
86 32 83 1
87 32 84 1
88 34 85 1
@<TRIPOS>SUBSTRUCTURE
1	Y010	1	GROUP	1 ****	Y01
