# created with PyMOL 2.3.5
@<TRIPOS>MOLECULE
VPX
69 73 1                 
SMALL
USER_CHARGES
@<TRIPOS>ATOM
1	 CAA	8.401	5.428	0.873	C.3	1	VPX0	0.000	
2	 CAO	7.339	4.745	0.009	C.3	1	VPX0	0.000	
3	 OAV	6.878	3.538	0.671	O.3	1	VPX0	0.000	
4	 CAX	5.936	2.815	0.037	C.2	1	VPX0	0.000	
5	 OAC	5.510	3.183	-1.040	O.co2	1	VPX0	0.000	
6	 NAU	5.465	1.683	0.597	N.pl3	1	VPX0	0.000	
7	 CBE	4.439	0.896	-0.093	C.3	1	VPX0	0.000	
8	 CAR	4.517	-0.559	0.367	C.3	1	VPX0	0.000	
9	 CAP	3.055	1.457	0.241	C.3	1	VPX0	0.000	
10	 CAQ	1.991	0.637	-0.490	C.3	1	VPX0	0.000	
11	 CBI	2.062	-0.824	-0.042	C.3	1	VPX0	0.000	
12	 CBG	3.453	-1.389	-0.355	C.3	1	VPX0	0.000	
13	 CAS	3.511	-2.827	0.159	C.3	1	VPX0	0.000	
14	 CBH	2.495	-3.718	-0.555	C.3	1	VPX0	0.000	
15	 CAY	2.309	-4.948	0.336	C.2	1	VPX0	0.000	
16	 OAD	2.972	-5.957	0.285	O.co2	1	VPX0	0.000	
17	 OAW	1.290	-4.728	1.184	O.3	1	VPX0	0.000	
18	 CBD	0.685	-3.415	0.950	C.3	1	VPX0	0.000	
19	 CAB	-0.837	-3.489	1.089	C.3	1	VPX0	0.000	
20	 CBJ	1.084	-3.100	-0.505	C.3	1	VPX0	0.000	
21	 CBF	1.036	-1.635	-0.836	C.3	1	VPX0	0.000	
22	 CAG	-0.344	-1.110	-0.529	C.2	1	VPX0	0.000	
23	 CAF	-1.152	-0.751	-1.518	C.2	1	VPX0	0.000	
24	 CBA	-2.503	-0.237	-1.218	C.2	1	VPX0	0.000	
25	 CAK	-3.349	0.133	-2.265	C.2	1	VPX0	0.000	
26	 CAL	-4.613	0.607	-1.974	C.2	1	VPX0	0.000	
27	 NAT	-2.902	-0.137	0.046	N.2	1	VPX0	0.000	
28	 CAM	-4.096	0.315	0.360	C.2	1	VPX0	0.000	
29	 CBB	-4.997	0.698	-0.632	C.2	1	VPX0	0.000	
30	 CBC	-6.345	1.202	-0.270	C.2	1	VPX0	0.000	
31	 CAN	-6.721	1.290	1.069	C.2	1	VPX0	0.000	
32	 CAZ	-7.978	1.760	1.401	C.2	1	VPX0	0.000	
33	 FAE	-8.345	1.847	2.698	 F	1	VPX0	0.000	
34	 CAI	-8.861	2.143	0.405	C.2	1	VPX0	0.000	
35	 CAH	-8.491	2.057	-0.925	C.2	1	VPX0	0.000	
36	 CAJ	-7.236	1.593	-1.267	C.2	1	VPX0	0.000	
37	  H1	8.747	6.334	0.376	 H	1	VPX0	0.000	
38	  H2	7.970	5.686	1.841	 H	1	VPX0	0.000	
39	  H3	9.242	4.750	1.019	 H	1	VPX0	0.000	
40	  H4	6.498	5.424	-0.137	 H	1	VPX0	0.000	
41	  H5	7.769	4.488	-0.959	 H	1	VPX0	0.000	
42	  H6	5.805	1.390	1.457	 H	1	VPX0	0.000	
43	  H7	4.604	0.948	-1.169	 H	1	VPX0	0.000	
44	  H8	5.505	-0.959	0.139	 H	1	VPX0	0.000	
45	  H9	4.347	-0.609	1.443	 H	1	VPX0	0.000	
46	 H10	2.886	1.395	1.316	 H	1	VPX0	0.000	
47	 H11	2.996	2.497	-0.079	 H	1	VPX0	0.000	
48	 H12	1.003	1.039	-0.261	 H	1	VPX0	0.000	
49	 H13	2.164	0.696	-1.565	 H	1	VPX0	0.000	
50	 H14	1.851	-0.898	1.025	 H	1	VPX0	0.000	
51	 H15	3.629	-1.359	-1.431	 H	1	VPX0	0.000	
52	 H16	4.513	-3.224	-0.007	 H	1	VPX0	0.000	
53	 H17	3.301	-2.831	1.228	 H	1	VPX0	0.000	
54	 H18	2.810	-3.977	-1.566	 H	1	VPX0	0.000	
55	 H19	1.099	-2.673	1.632	 H	1	VPX0	0.000	
56	 H20	-1.236	-4.185	0.351	 H	1	VPX0	0.000	
57	 H21	-1.094	-3.835	2.090	 H	1	VPX0	0.000	
58	 H22	-1.265	-2.500	0.925	 H	1	VPX0	0.000	
59	 H23	0.426	-3.638	-1.187	 H	1	VPX0	0.000	
60	 H24	1.232	-1.507	-1.901	 H	1	VPX0	0.000	
61	 H25	-0.674	-1.026	0.495	 H	1	VPX0	0.000	
62	 H27	-0.821	-0.835	-2.543	 H	1	VPX0	0.000	
63	 H29	-3.019	0.050	-3.290	 H	1	VPX0	0.000	
64	 H30	-5.289	0.901	-2.764	 H	1	VPX0	0.000	
65	 H31	-4.385	0.382	1.399	 H	1	VPX0	0.000	
66	 H32	-6.032	0.991	1.846	 H	1	VPX0	0.000	
67	 H33	-9.842	2.511	0.667	 H	1	VPX0	0.000	
68	 H34	-9.184	2.356	-1.697	 H	1	VPX0	0.000	
69	 H35	-6.949	1.527	-2.306	 H	1	VPX0	0.000	
@<TRIPOS>BOND
1 34 35 2
2 35 36 1
3 32 34 1
4 30 36 2
5 32 33 1
6 31 32 2
7 30 31 1
8 29 30 1
9 26 29 2
10 25 26 1
11 28 29 1
12 24 25 2
13 27 28 2
14 1 2 1
15 24 27 1
16 23 24 1
17 9 10 1
18 7 9 1
19 2 3 1
20 3 4 1
21 10 11 1
22 4 5 2
23 4 6 1
24 22 23 2
25 21 22 1
26 6 7 1
27 7 8 1
28 11 21 1
29 11 12 1
30 18 19 1
31 20 21 1
32 8 12 1
33 18 20 1
34 17 18 1
35 12 13 1
36 14 20 1
37 13 14 1
38 15 17 1
39 14 15 1
40 15 16 2
41 1 37 1
42 1 38 1
43 1 39 1
44 2 40 1
45 2 41 1
46 6 42 1
47 7 43 1
48 8 44 1
49 8 45 1
50 9 46 1
51 9 47 1
52 10 48 1
53 10 49 1
54 11 50 1
55 12 51 1
56 13 52 1
57 13 53 1
58 14 54 1
59 18 55 1
60 19 56 1
61 19 57 1
62 19 58 1
63 20 59 1
64 21 60 1
65 22 61 1
66 23 62 1
67 25 63 1
68 26 64 1
69 28 65 1
70 31 66 1
71 34 67 1
72 35 68 1
73 36 69 1
@<TRIPOS>SUBSTRUCTURE
1	VPX0	1	GROUP	1 ****	VPX
