# created with PyMOL 2.3.5
@<TRIPOS>MOLECULE
9XW
54 57 1 0 0
SMALL
USER_CHARGES


@<TRIPOS>ATOM
      1 C13         2.0870   -0.1190    0.0520 C.2       1 9XW1        0.0000
      2 C15        -0.3830    0.1640    0.2980 C.2       1 9XW1        0.0000
      3 C17        -2.6870   -0.3550    0.4730 C.2       1 9XW1        0.0000
      4 C20        -5.0620   -0.9460    0.4320 C.3       1 9XW1        0.0000
      5 C21        -6.0110   -0.5400   -0.7000 C.3       1 9XW1        0.0000
      6 C22        -6.4830    0.8980   -0.4730 C.3       1 9XW1        0.0000
      7 C26        -4.3200    1.4620    0.6420 C.3       1 9XW1        0.0000
      8 C28         1.3260   -1.2890    0.0400 C.2       1 9XW1        0.0000
      9 C01         2.0190   -4.9000   -0.2780 C.3       1 9XW1        0.0000
     10 C03         1.9970   -2.5270   -0.1090 C.2       1 9XW1        0.0000
     11 C04         3.3660   -2.5680   -0.2360 C.2       1 9XW1        0.0000
     12 C05         4.1120   -1.3980   -0.2220 C.2       1 9XW1        0.0000
     13 C06         3.4780   -0.1780   -0.0800 C.2       1 9XW1        0.0000
     14 C08         5.1380    1.0360    1.0920 C.3       1 9XW1        0.0000
     15 C09         5.8970    2.3660    1.1020 C.3       1 9XW1        0.0000
     16 C11         5.7430    2.4950   -1.2850 C.3       1 9XW1        0.0000
     17 C12         4.9820    1.1650   -1.3200 C.3       1 9XW1        0.0000
     18 C23        -7.4580    1.2960   -1.5830 C.3       1 9XW1        0.0000
     19 C25        -5.2770    1.8410   -0.4920 C.3       1 9XW1        0.0000
     20 N07         4.2320    1.0030   -0.0650 N.pl3     1 9XW1        0.0000
     21 N16        -1.7020    0.5650    0.4470 N.pl3     1 9XW1        0.0000
     22 N19        -3.9750    0.0390    0.5140 N.pl3     1 9XW1        0.0000
     23 N27         0.0050   -1.0580    0.1770 N.2       1 9XW1        0.0000
     24 O02         1.2820   -3.6850   -0.1250 O.3       1 9XW1        0.0000
     25 O10         6.5950    2.5210   -0.1360 O.3       1 9XW1        0.0000
     26 O18        -2.4130   -1.5390    0.4590 O.2       1 9XW1        0.0000
     27 O24        -7.1390    0.9900    0.7930 O.3       1 9XW1        0.0000
     28 S14         0.9970    1.2520    0.2430 S.3       1 9XW1        0.0000
     29 H1         -5.6070   -0.9690    1.3750 H         1 9XW1        0.0000
     30 H2         -4.6460   -1.9330    0.2260 H         1 9XW1        0.0000
     31 H3         -5.4890   -0.6050   -1.6540 H         1 9XW1        0.0000
     32 H4         -6.8720   -1.2080   -0.7100 H         1 9XW1        0.0000
     33 H5         -3.4140    2.0640    0.5730 H         1 9XW1        0.0000
     34 H6         -4.8030    1.6380    1.6030 H         1 9XW1        0.0000
     35 H7          1.3300   -5.7450   -0.2740 H         1 9XW1        0.0000
     36 H8          2.5630   -4.8780   -1.2220 H         1 9XW1        0.0000
     37 H9          2.7250   -5.0030    0.5470 H         1 9XW1        0.0000
     38 H10         3.8650   -3.5190   -0.3480 H         1 9XW1        0.0000
     39 H11         5.1860   -1.4410   -0.3220 H         1 9XW1        0.0000
     40 H12         5.8490    0.2120    1.0200 H         1 9XW1        0.0000
     41 H13         4.5600    0.9400    2.0100 H         1 9XW1        0.0000
     42 H14         5.1910    3.1870    1.2270 H         1 9XW1        0.0000
     43 H15         6.6100    2.3710    1.9260 H         1 9XW1        0.0000
     44 H16         6.3450    2.5930   -2.1880 H         1 9XW1        0.0000
     45 H17         5.0330    3.3200   -1.2290 H         1 9XW1        0.0000
     46 H18         4.2890    1.1650   -2.1610 H         1 9XW1        0.0000
     47 H19         5.6890    0.3430   -1.4290 H         1 9XW1        0.0000
     48 H20        -8.3170    0.6250   -1.5690 H         1 9XW1        0.0000
     49 H21        -7.7940    2.3200   -1.4220 H         1 9XW1        0.0000
     50 H22        -6.9580    1.2250   -2.5490 H         1 9XW1        0.0000
     51 H23        -4.7620    1.7530   -1.4480 H         1 9XW1        0.0000
     52 H24        -5.6160    2.8680   -0.3540 H         1 9XW1        0.0000
     53 H25        -1.9160    1.5070    0.5330 H         1 9XW1        0.0000
     54 H26        -7.4650    1.8760    1.0030 H         1 9XW1        0.0000
@<TRIPOS>BOND
     1    6   18 1
     2   16   17 1
     3   16   25 1
     4   17   20 1
     5   15   25 1
     6    5    6 1
     7    4    5 1
     8    6   19 1
     9    6   27 1
    10    7   19 1
    11   13   20 1
    12   14   20 1
    13   14   15 1
    14    3   26 2
    15    4   22 1
    16    1   28 1
    17    2   28 1
    18    3   22 1
    19    3   21 1
    20    1   13 2
    21   12   13 1
    22    7   22 1
    23    1    8 1
    24    2   21 1
    25    2   23 2
    26   11   12 2
    27    8   23 1
    28    8   10 2
    29   10   11 1
    30   10   24 1
    31    9   24 1
    32    4   29 1
    33    4   30 1
    34    5   31 1
    35    5   32 1
    36    7   33 1
    37    7   34 1
    38    9   35 1
    39    9   36 1
    40    9   37 1
    41   11   38 1
    42   12   39 1
    43   14   40 1
    44   14   41 1
    45   15   42 1
    46   15   43 1
    47   16   44 1
    48   16   45 1
    49   17   46 1
    50   17   47 1
    51   18   48 1
    52   18   49 1
    53   18   50 1
    54   19   51 1
    55   19   52 1
    56   21   53 1
    57   27   54 1
@<TRIPOS>SUBSTRUCTURE
     1 9XW1        1 RESIDUE           4 A     9XW     0 ROOT
