# created with PyMOL 2.3.5
@<TRIPOS>MOLECULE
9Y2
41 42 1 0 0
SMALL
USER_CHARGES


@<TRIPOS>ATOM
      1 C10         0.8890    1.5030   -0.6060 C.2       1 9Y21        0.0000
      2 C13        -1.2260    0.3840   -0.3780 C.2       1 9Y21        0.0000
      3 C15         0.7280   -0.8730   -0.9930 C.2       1 9Y21        0.0000
      4 C17        -2.6700    0.4320   -0.0790 C.2       1 9Y21        0.0000
      5 C20        -4.7670   -0.6490    0.1520 C.2       1 9Y21        0.0000
      6 C22        -6.8300   -1.4480    0.4320 C.2       1 9Y21        0.0000
      7 C01         5.4700   -1.6720    1.4030 C.3       1 9Y21        0.0000
      8 C02         5.9860   -0.3960    0.7360 C.3       1 9Y21        0.0000
      9 C03         5.7970    0.7890    1.6860 C.3       1 9Y21        0.0000
     10 C04         7.4720   -0.5560    0.4090 C.3       1 9Y21        0.0000
     11 C05         5.2050   -0.1430   -0.5560 C.3       1 9Y21        0.0000
     12 C06         3.7410    0.0140   -0.2340 C.2       1 9Y21        0.0000
     13 C09         1.4890    0.2920   -0.9400 C.2       1 9Y21        0.0000
     14 C12        -0.4610    1.5520   -0.3260 C.2       1 9Y21        0.0000
     15 C14        -0.6220   -0.8310   -0.7140 C.2       1 9Y21        0.0000
     16 C23        -7.1160   -0.1760    0.7190 C.2       1 9Y21        0.0000
     17 F11         1.6300    2.6310   -0.5500 F         1 9Y21        0.0000
     18 F16         1.3140   -2.0470   -1.3180 F         1 9Y21        0.0000
     19 N08         2.8550    0.2460   -1.2230 N.pl3     1 9Y21        0.0000
     20 N19        -3.4080   -0.6950   -0.1300 N.pl3     1 9Y21        0.0000
     21 N21        -5.5640   -1.6710    0.1320 N.2       1 9Y21        0.0000
     22 O07         3.3600   -0.0670    0.9140 O.2       1 9Y21        0.0000
     23 O18        -3.1950    1.4890    0.2130 O.2       1 9Y21        0.0000
     24 S24        -5.6310    0.7620    0.5830 S.3       1 9Y21        0.0000
     25 H1         -7.5740   -2.2300    0.4450 H         1 9Y21        0.0000
     26 H2          4.4110   -1.5580    1.6350 H         1 9Y21        0.0000
     27 H3          5.6050   -2.5160    0.7260 H         1 9Y21        0.0000
     28 H4          6.0270   -1.8520    2.3230 H         1 9Y21        0.0000
     29 H5          6.3540    0.6090    2.6050 H         1 9Y21        0.0000
     30 H6          6.1650    1.6980    1.2100 H         1 9Y21        0.0000
     31 H7          4.7390    0.9030    1.9180 H         1 9Y21        0.0000
     32 H8          7.6070   -1.4000   -0.2670 H         1 9Y21        0.0000
     33 H9          7.8400    0.3540   -0.0660 H         1 9Y21        0.0000
     34 H10         8.0290   -0.7350    1.3290 H         1 9Y21        0.0000
     35 H11         5.5730    0.7660   -1.0310 H         1 9Y21        0.0000
     36 H12         5.3400   -0.9870   -1.2320 H         1 9Y21        0.0000
     37 H13        -0.9260    2.4910   -0.0670 H         1 9Y21        0.0000
     38 H14        -1.2110   -1.7350   -0.7550 H         1 9Y21        0.0000
     39 H15        -8.0880    0.2100    0.9880 H         1 9Y21        0.0000
     40 H16         3.1670    0.3800   -2.1320 H         1 9Y21        0.0000
     41 H17        -2.9890   -1.5380   -0.3630 H         1 9Y21        0.0000
@<TRIPOS>BOND
     1    8   10 1
     2    7    8 1
     3    8    9 1
     4    8   11 1
     5   11   12 1
     6   12   19 1
     7   13   19 1
     8   12   22 2
     9    1   17 1
    10    1   13 2
    11    3   13 1
    12    3   18 1
    13    1   14 1
    14    3   15 2
    15    2   14 2
    16    2   15 1
    17    2    4 1
    18    4   23 2
    19    4   20 1
    20    5   20 1
    21    5   21 2
    22    5   24 1
    23    6   21 1
    24   16   24 1
    25    6   16 2
    26    6   25 1
    27    7   26 1
    28    7   27 1
    29    7   28 1
    30    9   29 1
    31    9   30 1
    32    9   31 1
    33   10   32 1
    34   10   33 1
    35   10   34 1
    36   11   35 1
    37   11   36 1
    38   14   37 1
    39   15   38 1
    40   16   39 1
    41   19   40 1
    42   20   41 1
@<TRIPOS>SUBSTRUCTURE
     1 9Y21        1 RESIDUE           4 A     9Y2     0 ROOT
