@<TRIPOS>MOLECULE
    ALC
  102   104     0     0     0
SMALL
USER_CHARGES


@<TRIPOS>ATOM
      1 X         196.9480  -11.3020   69.0770 N.4        1 ALC      0.000000
      2 X         195.5880  -11.6560   68.6240 C.3        1 ALC      0.000000
      3 X         194.4980  -11.4700   69.6790 C.2        1 ALC      0.000000
      4 X         194.7140  -11.7620   70.8580 O.2        1 ALC      0.000000
      5 X         195.7170  -13.1240   68.1970 C.3        1 ALC      0.000000
      6 X         197.1800  -13.3780   68.0770 C.3        1 ALC      0.000000
      7 X         197.8220  -12.4910   69.0860 C.3        1 ALC      0.000000
      8 X         196.8973  -10.9211   70.0110 H          1 ALC      0.000000
      9 X         197.3363  -10.6078   68.4546 H          1 ALC      0.000000
     10 X         195.3394  -11.0545   67.7496 H          1 ALC      0.000000
     11 X         195.2774  -13.7791   68.9491 H          1 ALC      0.000000
     12 X         195.2296  -13.2785   67.2344 H          1 ALC      0.000000
     13 X         197.5287  -13.1293   67.0747 H          1 ALC      0.000000
     14 X         197.3990  -14.4218   68.3020 H          1 ALC      0.000000
     15 X         198.8392  -12.2329   68.7915 H          1 ALC      0.000000
     16 X         197.8163  -12.9626   70.0687 H          1 ALC      0.000000
     17 X         193.3290  -10.9690   69.2380 N.am       2 ALC      0.000000
     18 X         192.1450  -10.7120   70.0590 C.3        2 ALC      0.000000
     19 X         191.8910   -9.1820   70.1390 C.3        2 ALC      0.000000
     20 X         190.6100   -7.3840   71.4240 C.3        2 ALC      0.000000
     21 X         190.6970   -8.8460   71.0280 C.3        2 ALC      0.000000
     22 X         189.4370   -7.1070   72.3400 C.3        2 ALC      0.000000
     23 X         189.6380   -5.9190   73.1580 N.pl3      2 ALC      0.000000
     24 X         190.4220   -5.8910   74.3500 C.2        2 ALC      0.000000
     25 X         191.1250   -4.8090   74.5380 N.pl3      2 ALC      0.000000
     26 X         190.3570   -7.0120   75.2070 N.pl3      2 ALC      0.000000
     27 X         190.9350  -11.4390   69.4590 C.2        2 ALC      0.000000
     28 X         190.7230  -11.3810   68.2450 O.2        2 ALC      0.000000
     29 X         193.2632  -10.7513   68.2539 H          2 ALC      0.000000
     30 X         192.3231  -11.0933   71.0645 H          2 ALC      0.000000
     31 X         192.7793   -8.6988   70.5458 H          2 ALC      0.000000
     32 X         191.7060   -8.7992   69.1353 H          2 ALC      0.000000
     33 X         191.5298   -7.1046   71.9379 H          2 ALC      0.000000
     34 X         190.5082   -6.7779   70.5238 H          2 ALC      0.000000
     35 X         190.7690   -9.4428   71.9372 H          2 ALC      0.000000
     36 X         189.7824   -9.1201   70.5022 H          2 ALC      0.000000
     37 X         188.5439   -6.9654   71.7314 H          2 ALC      0.000000
     38 X         189.2875   -7.9662   72.9939 H          2 ALC      0.000000
     39 X         189.1946   -5.0608   72.8630 H          2 ALC      0.000000
     40 X         191.0941   -4.0623   73.8586 H          2 ALC      0.000000
     41 X         191.7005   -4.7176   75.3630 H          2 ALC      0.000000
     42 X         190.9129   -7.7623   74.8222 H          2 ALC      0.000000
     43 X         189.3972   -7.3144   75.2936 H          2 ALC      0.000000
     44 N         190.1480  -12.1150   70.3200 N.am       3 ALC      0.000000
     45 CA        188.9470  -12.8700   69.9370 C.3        3 ALC      0.000000
     46 C         187.8320  -11.9080   69.5150 C.2        3 ALC      0.000000
     47 O         187.7100  -10.8230   70.0890 O.2        3 ALC      0.000000
     48 CB        188.3950  -13.8060   71.0160 C.3        3 ALC      0.000000
     49 CG        189.3870  -14.8530   71.5260 C.3        3 ALC      0.000000
     50 CD2       188.9390  -15.4770   72.8480 C.3        3 ALC      0.000000
     51 CE2       189.9440  -16.5010   73.3780 C.3        3 ALC      0.000000
     52 CZ        190.2310  -17.5900   72.3460 C.3        3 ALC      0.000000
     53 CE1       190.6680  -16.9860   71.0130 C.3        3 ALC      0.000000
     54 CD1       189.6510  -15.9630   70.5070 C.3        3 ALC      0.000000
     55 H         190.4019  -12.1015   71.2975 H          3 ALC      0.000000
     56 HA        189.2027  -13.4796   69.0704 H          3 ALC      0.000000
     57 HB2       187.5329  -14.3291   70.6022 H          3 ALC      0.000000
     58 HB3       188.0621  -13.2031   71.8609 H          3 ALC      0.000000
     59 HG        190.3338  -14.3448   71.7086 H          3 ALC      0.000000
     60 HD22      187.9811  -15.9738   72.6939 H          3 ALC      0.000000
     61 HD23      188.8137  -14.6871   73.5885 H          3 ALC      0.000000
     62 HE22      190.8753  -15.9897   73.6215 H          3 ALC      0.000000
     63 HE23      189.5426  -16.9613   74.2808 H          3 ALC      0.000000
     64 HZ2       191.0254  -18.2350   72.7214 H          3 ALC      0.000000
     65 HZ3       189.3301  -18.1839   72.1920 H          3 ALC      0.000000
     66 HE12      191.6313  -16.4934   71.1453 H          3 ALC      0.000000
     67 HE13      190.7715  -17.7824   70.2760 H          3 ALC      0.000000
     68 HD12      188.7126  -16.4763   70.2971 H          3 ALC      0.000000
     69 HD13      190.0251  -15.5169   69.5855 H          3 ALC      0.000000
     70 Y0        187.0400  -12.2980   68.4880 N.am       4 ALC      0.000000
     71 X         185.9390  -11.5070   67.9140 C.3        4 ALC      0.000000
     72 X         184.8890  -12.3700   67.1710 C.2        4 ALC      0.000000
     73 X         184.9770  -13.5990   67.2070 O.2        4 ALC      0.000000
     74 X         186.4940  -10.3870   67.0060 C.3        4 ALC      0.000000
     75 X         187.3320  -10.8540   65.8240 C.3        4 ALC      0.000000
     76 X         188.0080   -9.7230   65.0760 C.2        4 ALC      0.000000
     77 X         189.0010   -9.1710   65.6020 O.2        4 ALC      0.000000
     78 X         187.2193  -13.2056   68.0828 H          4 ALC      0.000000
     79 X         185.4258  -11.0219   68.7443 H          4 ALC      0.000000
     80 X         187.1145   -9.7342   67.6199 H          4 ALC      0.000000
     81 X         185.6547   -9.8054   66.6246 H          4 ALC      0.000000
     82 X         188.1019  -11.5313   66.1936 H          4 ALC      0.000000
     83 X         186.6894  -11.3978   65.1315 H          4 ALC      0.000000
     84 X         187.6421   -9.4008   64.1123 H          4 ALC      0.000000
     85 X         183.8900  -11.7200   66.5190 N.am       5 ALC      0.000000
     86 X         182.8290  -12.3700   65.7290 C.3        5 ALC      0.000000
     87 X         183.3320  -12.7120   64.3130 C.2        5 ALC      0.000000
     88 X         184.4320  -12.2970   63.9380 O.2        5 ALC      0.000000
     89 X         181.5880  -11.4560   65.6210 C.3        5 ALC      0.000000
     90 X         180.7280  -11.4180   66.8460 C.ar       5 ALC      0.000000
     91 X         180.6890  -10.3010   67.6620 N.ar       5 ALC      0.000000
     92 X         179.8750  -12.3470   67.3380 C.ar       5 ALC      0.000000
     93 X         179.8330  -10.5910   68.6290 C.ar       5 ALC      0.000000
     94 X         179.3190  -11.8120   68.4770 N.ar       5 ALC      0.000000
     95 X         183.8730  -10.7120   66.5805 H          5 ALC      0.000000
     96 X         182.5389  -13.2943   66.2286 H          5 ALC      0.000000
     97 X         182.7245  -13.3122   63.6518 H          5 ALC      0.000000
     98 X         181.9307  -10.4418   65.4158 H          5 ALC      0.000000
     99 X         180.9807  -11.7935   64.7811 H          5 ALC      0.000000
    100 X         179.6704  -13.3205   66.9174 H          5 ALC      0.000000
    101 X         179.5823   -9.9226   69.4394 H          5 ALC      0.000000
    102 X         178.6475  -12.2600   69.0841 H          5 ALC      0.000000
@<TRIPOS>BOND
     1    1    2 1
     2    1    7 1
     3    1    8 1
     4    1    9 1
     5    2    3 1
     6    2    5 1
     7    2   10 1
     8    3    4 2
     9    3   17 am
    10    5    6 1
    11    5   11 1
    12    5   12 1
    13    6    7 1
    14    6   13 1
    15    6   14 1
    16    7   15 1
    17    7   16 1
    18   17   18 1
    19   17   29 1
    20   18   19 1
    21   18   27 1
    22   18   30 1
    23   19   21 1
    24   19   31 1
    25   19   32 1
    26   20   21 1
    27   20   22 1
    28   20   33 1
    29   20   34 1
    30   21   35 1
    31   21   36 1
    32   22   23 1
    33   22   37 1
    34   22   38 1
    35   23   24 1
    36   23   39 1
    37   24   25 2
    38   24   26 1
    39   25   40 1
    40   25   41 1
    41   26   42 1
    42   26   43 1
    43   27   28 2
    44   27   44 am
    45   44   45 1
    46   44   55 1
    47   45   46 1
    48   45   48 1
    49   45   56 1
    50   46   47 2
    51   46   70 am
    52   48   49 1
    53   48   57 1
    54   48   58 1
    55   49   50 1
    56   49   54 1
    57   49   59 1
    58   50   51 1
    59   50   60 1
    60   50   61 1
    61   51   52 1
    62   51   62 1
    63   51   63 1
    64   52   53 1
    65   52   64 1
    66   52   65 1
    67   53   54 1
    68   53   66 1
    69   53   67 1
    70   54   68 1
    71   54   69 1
    72   70   71 1
    73   70   78 1
    74   71   72 1
    75   71   74 1
    76   71   79 1
    77   72   73 2
    78   72   85 am
    79   74   75 1
    80   74   80 1
    81   74   81 1
    82   75   76 1
    83   75   82 1
    84   75   83 1
    85   76   77 2
    86   76   84 1
    87   85   86 1
    88   85   95 1
    89   86   87 1
    90   86   89 1
    91   86   96 1
    92   87   88 2
    93   87   97 1
    94   89   90 1
    95   89   98 1
    96   89   99 1
    97   90   91 ar
    98   90   92 ar
    99   91   93 ar
   100   92   94 ar
   101   92  100 1
   102   93   94 ar
   103   93  101 1
   104   94  102 1
