# created with PyMOL 2.3.5
@<TRIPOS>MOLECULE
FMN
51 53 1 0 0
SMALL
USER_CHARGES


@<TRIPOS>ATOM
      1 N1          2.1180   -2.4930    0.5310 N.2       1 FMN1        0.0000
      2 C2          2.7130   -3.6380    0.2060 C.2       1 FMN1        0.0000
      3 O2          2.1220   -4.6770    0.4450 O.2       1 FMN1        0.0000
      4 N3          3.9210   -3.7210   -0.3680 N.pl3     1 FMN1        0.0000
      5 C4          4.6360   -2.6100   -0.6640 C.2       1 FMN1        0.0000
      6 O4          5.7320   -2.6820   -1.1850 O.2       1 FMN1        0.0000
      7 C4A         4.0270   -1.3050   -0.3250 C.2       1 FMN1        0.0000
      8 N5          4.6310   -0.1700   -0.5660 N.2       1 FMN1        0.0000
      9 C5A         4.0510    0.9950   -0.2460 C.2       1 FMN1        0.0000
     10 C6          4.7180    2.2060   -0.5140 C.2       1 FMN1        0.0000
     11 C7          4.1310    3.3920   -0.1900 C.2       1 FMN1        0.0000
     12 C7M         4.8500    4.6830   -0.4800 C.3       1 FMN1        0.0000
     13 C8          2.8740    3.4230    0.4050 C.2       1 FMN1        0.0000
     14 C8M         2.2460    4.7480    0.7520 C.3       1 FMN1        0.0000
     15 C9          2.1970    2.2550    0.6780 C.2       1 FMN1        0.0000
     16 C9A         2.7740    1.0290    0.3590 C.2       1 FMN1        0.0000
     17 N10         2.1010   -0.1440    0.6310 N.pl3     1 FMN1        0.0000
     18 C10         2.6950   -1.3250    0.3040 C.2       1 FMN1        0.0000
     19 C1'         0.7770   -0.1190    1.2580 C.3       1 FMN1        0.0000
     20 C2'        -0.3000   -0.0600    0.1730 C.3       1 FMN1        0.0000
     21 O2'        -0.1220    1.1210   -0.6110 O.3       1 FMN1        0.0000
     22 C3'        -1.6830   -0.0350    0.8270 C.3       1 FMN1        0.0000
     23 O3'        -1.8600   -1.2170    1.6110 O.3       1 FMN1        0.0000
     24 C4'        -2.7600    0.0240   -0.2580 C.3       1 FMN1        0.0000
     25 O4'        -2.5820    1.2060   -1.0420 O.3       1 FMN1        0.0000
     26 C5'        -4.1420    0.0490    0.3970 C.3       1 FMN1        0.0000
     27 O5'        -5.1490   -0.0130   -0.6150 O.3       1 FMN1        0.0000
     28 P          -6.7250   -0.0070   -0.2850 P.3       1 FMN1        0.0000
     29 O1P        -7.0530    1.1800    0.5360 O.co2     1 FMN1        0.0000
     30 O2P        -7.5610    0.0450   -1.6600 O.3       1 FMN1        0.0000
     31 O3P        -7.1090   -1.3440    0.5260 O.3       1 FMN1        0.0000
     32 H1          1.2044   -2.5166    0.9611 H         1 FMN1        0.0000
     33 H3          4.3055   -4.6297   -0.5839 H         1 FMN1        0.0000
     34 H6          5.6941    2.1946   -0.9760 H         1 FMN1        0.0000
     35 H9          1.2207    2.2903    1.1385 H         1 FMN1        0.0000
     36 H1'         0.6412   -1.0202    1.8559 H         1 FMN1        0.0000
     37 H1''        0.6951    0.7585    1.8994 H         1 FMN1        0.0000
     38 H2'        -0.2176   -0.9374   -0.4684 H         1 FMN1        0.0000
     39 H3'        -1.7655    0.8422    1.4687 H         1 FMN1        0.0000
     40 H4'        -2.6778   -0.8533   -0.8996 H         1 FMN1        0.0000
     41 H5'        -4.2437   -0.8073    1.0637 H         1 FMN1        0.0000
     42 H5''       -4.2569    0.9702    0.9683 H         1 FMN1        0.0000
     43 HO2'       -0.9729    1.4167   -0.9427 H         1 FMN1        0.0000
     44 HO4'       -2.8904    1.0456   -1.9368 H         1 FMN1        0.0000
     45 HO3'       -1.7870   -1.9895    1.0458 H         1 FMN1        0.0000
     46 H7M1        5.8129    4.4671   -0.9429 H         1 FMN1        0.0000
     47 H7M2        4.2489    5.2890   -1.1579 H         1 FMN1        0.0000
     48 H7M3        5.0083    5.2277    0.4508 H         1 FMN1        0.0000
     49 H8M1        1.2697    4.5800    1.2066 H         1 FMN1        0.0000
     50 H8M2        2.8869    5.2806    1.4547 H         1 FMN1        0.0000
     51 H8M3        2.1275    5.3423   -0.1540 H         1 FMN1        0.0000
@<TRIPOS>BOND
     1    1    2 1
     2    1   18 2
     3    2    3 2
     4    2    4 1
     5    4    5 1
     6    5    6 2
     7    5    7 1
     8    7    8 2
     9    7   18 1
    10    8    9 1
    11    9   10 2
    12    9   16 1
    13   10   11 1
    14   11   12 1
    15   11   13 2
    16   13   14 1
    17   13   15 1
    18   15   16 2
    19   16   17 1
    20   17   18 1
    21   17   19 1
    22   19   20 1
    23   20   21 1
    24   20   22 1
    25   22   23 1
    26   22   24 1
    27   24   25 1
    28   24   26 1
    29   26   27 1
    30   27   28 1
    31   28   29 2
    32   28   30 1
    33   28   31 1
    34   32    1 1
    35   33    4 1
    36   34   10 1
    37   35   15 1
    38   36   19 1
    39   37   19 1
    40   38   20 1
    41   39   22 1
    42   40   24 1
    43   41   26 1
    44   42   26 1
    45   43   21 1
    46   44   25 1
    47   45   23 1
    48   46   12 1
    49   47   12 1
    50   48   12 1
    51   49   14 1
    52   50   14 1
    53   51   14 1
@<TRIPOS>SUBSTRUCTURE
     1 FMN1       24 RESIDUE           4 A     FMN     0 ROOT
