# created with PyMOL 2.3.5
@<TRIPOS>MOLECULE
9DW
43 44 1                 
SMALL
USER_CHARGES
@<TRIPOS>ATOM
1	 C01	-1.179	-2.538	1.078	C.3	1	9DW0	0.000	
2	 C02	-1.773	-2.215	-0.294	C.3	1	9DW0	0.000	
3	 C05	-4.849	-0.039	0.005	C.2	1	9DW0	0.000	
4	 C07	-2.926	1.392	-0.062	C.2	1	9DW0	0.000	
5	 C08	-2.102	0.273	-0.163	C.2	1	9DW0	0.000	
6	 C09	-0.630	0.440	-0.253	C.2	1	9DW0	0.000	
7	 C11	1.426	1.289	0.651	C.2	1	9DW0	0.000	
8	 C12	2.116	0.752	-0.420	C.2	1	9DW0	0.000	
9	 C13	1.438	0.065	-1.411	C.2	1	9DW0	0.000	
10	 C14	0.070	-0.094	-1.333	C.2	1	9DW0	0.000	
11	 C15	3.610	0.922	-0.512	C.3	1	9DW0	0.000	
12	 C03	-2.662	-1.003	-0.185	C.2	1	9DW0	0.000	
13	 C04	-4.030	-1.155	-0.101	C.2	1	9DW0	0.000	
14	 C06	-4.294	1.233	0.022	C.2	1	9DW0	0.000	
15	 C10	0.057	1.137	0.740	C.2	1	9DW0	0.000	
16	 C16	4.300	-0.249	0.191	C.3	1	9DW0	0.000	
17	 C88	5.791	-0.145	-0.005	C.2	1	9DW0	0.000	
18	 CA7	-6.979	0.999	0.195	C.3	1	9DW0	0.000	
19	 N17	3.992	-0.208	1.627	N.3	1	9DW0	0.000	
20	 O89	6.486	0.306	0.874	O.co2	1	9DW0	0.000	
21	 OA6	-6.196	-0.192	0.088	O.3	1	9DW0	0.000	
22	  H1	-0.619	-3.471	1.021	 H	1	9DW0	0.000	
23	  H2	-0.513	-1.731	1.384	 H	1	9DW0	0.000	
24	  H3	-1.983	-2.641	1.807	 H	1	9DW0	0.000	
25	  H4	-0.968	-2.013	-1.000	 H	1	9DW0	0.000	
26	  H5	-2.359	-3.065	-0.645	 H	1	9DW0	0.000	
27	  H6	-2.495	2.382	-0.049	 H	1	9DW0	0.000	
28	  H7	1.959	1.828	1.420	 H	1	9DW0	0.000	
29	  H8	1.982	-0.352	-2.246	 H	1	9DW0	0.000	
30	  H9	-0.458	-0.631	-2.107	 H	1	9DW0	0.000	
31	 H10	3.910	0.944	-1.559	 H	1	9DW0	0.000	
32	 H11	3.900	1.856	-0.031	 H	1	9DW0	0.000	
33	 H12	-4.465	-2.144	-0.117	 H	1	9DW0	0.000	
34	 H13	-4.934	2.100	0.100	 H	1	9DW0	0.000	
35	 H14	-0.481	1.557	1.577	 H	1	9DW0	0.000	
36	 H15	3.943	-1.188	-0.231	 H	1	9DW0	0.000	
37	 H17	-6.691	1.543	1.094	 H	1	9DW0	0.000	
38	 H18	-6.809	1.626	-0.680	 H	1	9DW0	0.000	
39	 H19	-8.035	0.735	0.253	 H	1	9DW0	0.000	
40	 H20	4.313	0.653	2.042	 H	1	9DW0	0.000	
41	 H21	3.005	-0.341	1.788	 H	1	9DW0	0.000	
42	 OXT	6.346	-0.553	-1.157	O.3	1	9DW0	0.000	
43	 H16	7.306	-0.466	-1.237	 H	1	9DW0	0.000	
@<TRIPOS>BOND
1 17 20 2
2 16 17 1
3 16 19 1
4 11 16 1
5 7 15 2
6 7 8 1
7 8 11 1
8 6 15 1
9 8 9 2
10 5 6 1
11 6 10 2
12 9 10 1
13 4 5 2
14 5 12 1
15 4 14 1
16 2 12 1
17 1 2 1
18 12 13 2
19 3 14 2
20 3 13 1
21 3 21 1
22 18 21 1
23 1 22 1
24 1 23 1
25 1 24 1
26 2 25 1
27 2 26 1
28 4 27 1
29 7 28 1
30 9 29 1
31 10 30 1
32 11 31 1
33 11 32 1
34 13 33 1
35 14 34 1
36 15 35 1
37 16 36 1
38 18 37 1
39 18 38 1
40 18 39 1
41 19 40 1
42 19 41 1
43 17 42 1
44 42 43 1
@<TRIPOS>SUBSTRUCTURE
1	9DW0	1	GROUP	1 ****	9DW
