# created with PyMOL 2.3.5
@<TRIPOS>MOLECULE
PG4
31 30 1                 
SMALL
USER_CHARGES
@<TRIPOS>ATOM
1	  O1	0.795	1.141	4.996	O.3	1	PG40	0.000	
2	  C1	1.594	0.122	4.393	C.3	1	PG40	0.000	
3	  C2	0.685	-0.893	3.697	C.3	1	PG40	0.000	
4	  O2	-0.083	-0.233	2.690	O.3	1	PG40	0.000	
5	  C3	-0.907	-1.228	2.081	C.3	1	PG40	0.000	
6	  C4	-1.762	-0.584	0.987	C.3	1	PG40	0.000	
7	  O3	-0.910	-0.000	-0.000	O.3	1	PG40	0.000	
8	  C5	-1.762	0.581	-0.988	C.3	1	PG40	0.000	
9	  C6	-0.909	1.227	-2.081	C.3	1	PG40	0.000	
10	  O4	-0.083	0.233	-2.690	O.3	1	PG40	0.000	
11	  C7	0.685	0.894	-3.697	C.3	1	PG40	0.000	
12	  C8	1.595	-0.119	-4.392	C.3	1	PG40	0.000	
13	  O5	0.798	-1.140	-4.996	O.3	1	PG40	0.000	
14	 HO1	1.405	1.759	5.422	 H	1	PG40	0.000	
15	 H11	2.264	0.571	3.660	 H	1	PG40	0.000	
16	 H12	2.181	-0.381	5.161	 H	1	PG40	0.000	
17	 H21	1.295	-1.671	3.237	 H	1	PG40	0.000	
18	 H22	0.015	-1.343	4.430	 H	1	PG40	0.000	
19	 H31	-0.277	-2.002	1.641	 H	1	PG40	0.000	
20	 H32	-1.557	-1.674	2.834	 H	1	PG40	0.000	
21	 H41	-2.390	-1.344	0.522	 H	1	PG40	0.000	
22	 H42	-2.391	0.189	1.427	 H	1	PG40	0.000	
23	 H51	-2.391	-0.192	-1.427	 H	1	PG40	0.000	
24	 H52	-2.392	1.340	-0.523	 H	1	PG40	0.000	
25	 H61	-1.559	1.671	-2.835	 H	1	PG40	0.000	
26	 H62	-0.280	2.001	-1.641	 H	1	PG40	0.000	
27	 H71	0.014	1.343	-4.430	 H	1	PG40	0.000	
28	 H72	1.293	1.673	-3.237	 H	1	PG40	0.000	
29	 H81	2.182	0.385	-5.160	 H	1	PG40	0.000	
30	 H82	2.266	-0.567	-3.659	 H	1	PG40	0.000	
31	 HO5	1.409	-1.757	-5.422	 H	1	PG40	0.000	
@<TRIPOS>BOND
1 1 2 1
2 1 14 1
3 2 3 1
4 2 15 1
5 2 16 1
6 3 4 1
7 3 17 1
8 3 18 1
9 4 5 1
10 5 6 1
11 5 19 1
12 5 20 1
13 6 7 1
14 6 21 1
15 6 22 1
16 7 8 1
17 8 9 1
18 8 23 1
19 8 24 1
20 9 10 1
21 9 25 1
22 9 26 1
23 10 11 1
24 11 12 1
25 11 27 1
26 11 28 1
27 12 13 1
28 12 29 1
29 12 30 1
30 13 31 1
@<TRIPOS>SUBSTRUCTURE
1	PG40	1	GROUP	1 ****	PG4
