# created with PyMOL 2.3.5
@<TRIPOS>MOLECULE
TIM
46 47 1 0 0
SMALL
USER_CHARGES


@<TRIPOS>ATOM
      1 H01         4.2940   -1.2410   -1.0580 H         1 TIM1        0.0000
      2 C5         -4.5540   -0.7570   -0.3110 C.3       1 TIM1        0.0000
      3 C6         -4.8980   -2.2290   -0.5530 C.3       1 TIM1        0.0000
      4 O1         -4.2930   -3.0280    0.4680 O.3       1 TIM1        0.0000
      5 C2         -2.8700   -2.9000    0.5320 C.3       1 TIM1        0.0000
      6 C3         -2.5060   -1.4350    0.7850 C.3       1 TIM1        0.0000
      7 N4         -3.0920   -0.6000   -0.2740 N.pl3     1 TIM1        0.0000
      8 C7         -2.7360    0.7440   -0.1080 C.2       1 TIM1        0.0000
      9 N8         -3.6290    1.6940   -0.0050 N.2       1 TIM1        0.0000
     10 S9         -2.7680    3.1440    0.1800 S.3       1 TIM1        0.0000
     11 N10        -1.2270    2.4380    0.1150 N.2       1 TIM1        0.0000
     12 C11        -1.4150    1.1530   -0.0370 C.2       1 TIM1        0.0000
     13 O12        -0.3800    0.2750   -0.1230 O.3       1 TIM1        0.0000
     14 C13         0.9390    0.8170   -0.0360 C.3       1 TIM1        0.0000
     15 C14         1.9640   -0.3140   -0.1530 C.3       1 TIM1        0.0000
     16 O15         1.8810   -0.9000   -1.4530 O.3       1 TIM1        0.0000
     17 C16         3.3700    0.2480    0.0650 C.3       1 TIM1        0.0000
     18 N17         4.3540   -0.8370   -0.0470 N.3       1 TIM1        0.0000
     19 C18         5.7190   -0.3340    0.1570 C.3       1 TIM1        0.0000
     20 C19         5.8300    0.2870    1.5510 C.3       1 TIM1        0.0000
     21 C20         6.7130   -1.4910    0.0330 C.3       1 TIM1        0.0000
     22 C21         6.0350    0.7250   -0.9010 C.3       1 TIM1        0.0000
     23 H5         -4.9640   -0.1500   -1.1180 H         1 TIM1        0.0000
     24 H5A        -4.9790   -0.4350    0.6390 H         1 TIM1        0.0000
     25 H6         -5.9790   -2.3590   -0.5250 H         1 TIM1        0.0000
     26 H6A        -4.5190   -2.5360   -1.5280 H         1 TIM1        0.0000
     27 H2         -2.4860   -3.5160    1.3450 H         1 TIM1        0.0000
     28 H2A        -2.4320   -3.2270   -0.4110 H         1 TIM1        0.0000
     29 H3         -2.8980   -1.1240    1.7530 H         1 TIM1        0.0000
     30 H3A        -1.4220   -1.3230    0.7780 H         1 TIM1        0.0000
     31 H13         1.0930    1.5310   -0.8450 H         1 TIM1        0.0000
     32 H13A        1.0620    1.3210    0.9220 H         1 TIM1        0.0000
     33 H14         1.7550   -1.0720    0.6020 H         1 TIM1        0.0000
     34 HO15        2.0560   -0.2800   -2.1750 H         1 TIM1        0.0000
     35 H16         3.5790    1.0070   -0.6890 H         1 TIM1        0.0000
     36 H16A        3.4340    0.6950    1.0570 H         1 TIM1        0.0000
     37 HN17        4.1430   -1.5840    0.5990 H         1 TIM1        0.0000
     38 H19         5.6050   -0.4670    2.3040 H         1 TIM1        0.0000
     39 H19A        6.8430    0.6610    1.7020 H         1 TIM1        0.0000
     40 H19B        5.1220    1.1110    1.6390 H         1 TIM1        0.0000
     41 H20         6.6330   -1.9340   -0.9590 H         1 TIM1        0.0000
     42 H20A        7.7250   -1.1170    0.1850 H         1 TIM1        0.0000
     43 H20B        6.4870   -2.2460    0.7870 H         1 TIM1        0.0000
     44 H21         5.3270    1.5490   -0.8120 H         1 TIM1        0.0000
     45 H21A        7.0480    1.0990   -0.7490 H         1 TIM1        0.0000
     46 H21B        5.9550    0.2820   -1.8930 H         1 TIM1        0.0000
@<TRIPOS>BOND
     1    2    3 1
     2    2    7 1
     3    2   23 1
     4    2   24 1
     5    3    4 1
     6    3   25 1
     7    3   26 1
     8    4    5 1
     9    5    6 1
    10    5   27 1
    11    5   28 1
    12    6    7 1
    13    6   29 1
    14    6   30 1
    15    7    8 1
    16    8    9 2
    17    8   12 1
    18    9   10 1
    19   10   11 1
    20   11   12 2
    21   12   13 1
    22   13   14 1
    23   14   15 1
    24   14   31 1
    25   14   32 1
    26   15   16 1
    27   15   17 1
    28   15   33 1
    29   16   34 1
    30   17   18 1
    31   17   35 1
    32   17   36 1
    33    1   18 1
    34   18   19 1
    35   18   37 1
    36   19   20 1
    37   19   21 1
    38   19   22 1
    39   20   38 1
    40   20   39 1
    41   20   40 1
    42   21   41 1
    43   21   42 1
    44   21   43 1
    45   22   44 1
    46   22   45 1
    47   22   46 1
@<TRIPOS>SUBSTRUCTURE
     1 TIM1        1 RESIDUE           4 A     TIM     0 ROOT
