# created with PyMOL 2.3.5
@<TRIPOS>MOLECULE
ZLK
74 78 1 0 0
SMALL
USER_CHARGES


@<TRIPOS>ATOM
      1 C11         3.4460    2.2050   -0.0450 C.2       1 ZLK1        0.0000
      2 C01        -1.6850    4.8510   -1.4300 C.3       1 ZLK1        0.0000
      3 C03        -0.7050    2.7020   -1.1600 C.2       1 ZLK1        0.0000
      4 C04         0.3390    1.7990   -1.3070 C.2       1 ZLK1        0.0000
      5 C05         1.6200    2.2340   -1.9710 C.3       1 ZLK1        0.0000
      6 C06         2.5180    2.8860   -0.9510 C.2       1 ZLK1        0.0000
      7 C07         2.6180    4.2010   -0.7010 C.2       1 ZLK1        0.0000
      8 C09         3.9010    5.7320    0.8250 C.3       1 ZLK1        0.0000
      9 C10         4.0550    3.2150    0.7200 C.2       1 ZLK1        0.0000
     10 C12         3.7860    0.8670    0.1670 C.2       1 ZLK1        0.0000
     11 C13         4.7280    0.5470    1.1260 C.2       1 ZLK1        0.0000
     12 C15         5.0690   -1.6670    0.3180 C.2       1 ZLK1        0.0000
     13 C18         5.2790   -3.8570   -0.6090 C.3       1 ZLK1        0.0000
     14 C19         6.2290   -5.0450   -0.3790 C.3       1 ZLK1        0.0000
     15 C20         5.3610   -6.3200   -0.4340 C.3       1 ZLK1        0.0000
     16 C21         4.1250   -5.9020   -1.2690 C.3       1 ZLK1        0.0000
     17 C22         3.8670   -4.4510   -0.7950 C.3       1 ZLK1        0.0000
     18 C23         5.3340    1.5520    1.8780 C.2       1 ZLK1        0.0000
     19 C24         4.9950    2.8720    1.6860 C.2       1 ZLK1        0.0000
     20 C25         0.2070    0.5020   -0.8460 C.2       1 ZLK1        0.0000
     21 C26        -0.9620    0.0960   -0.2370 C.2       1 ZLK1        0.0000
     22 C27        -2.0180    0.9970   -0.0850 C.2       1 ZLK1        0.0000
     23 C28        -1.8820    2.3070   -0.5450 C.2       1 ZLK1        0.0000
     24 C29        -3.2730    0.5670    0.5670 C.2       1 ZLK1        0.0000
     25 C35        -6.0210   -1.1710    0.3230 C.2       1 ZLK1        0.0000
     26 C36        -7.1220   -0.3390    0.4100 C.2       1 ZLK1        0.0000
     27 C37        -8.0410   -0.2990   -0.6220 C.2       1 ZLK1        0.0000
     28 C38        -7.8600   -1.0920   -1.7400 C.2       1 ZLK1        0.0000
     29 C39        -6.7590   -1.9240   -1.8270 C.2       1 ZLK1        0.0000
     30 C40        -5.8400   -1.9630   -0.7950 C.2       1 ZLK1        0.0000
     31 C41        -4.6400   -2.8700   -0.8900 C.3       1 ZLK1        0.0000
     32 N08         3.5340    4.4180    0.2920 N.pl3     1 ZLK1        0.0000
     33 N14         5.0740   -0.7940    1.3440 N.pl3     1 ZLK1        0.0000
     34 N31        -3.4000   -0.6980    1.0150 N.pl3     1 ZLK1        0.0000
     35 O02        -0.5710    3.9760   -1.6150 O.3       1 ZLK1        0.0000
     36 O16         4.8570   -1.2750   -0.8130 O.co2     1 ZLK1        0.0000
     37 O17         5.2990   -2.9740    0.5440 O.3       1 ZLK1        0.0000
     38 O30        -4.1900    1.3530    0.6980 O.2       1 ZLK1        0.0000
     39 O33        -5.2550   -0.2320    2.5750 O.2       1 ZLK1        0.0000
     40 O34        -4.6710   -2.5860    1.9700 O.2       1 ZLK1        0.0000
     41 S32        -4.8460   -1.2160    1.6350 S.O2      1 ZLK1        0.0000
     42 H1         -1.4460    5.8340   -1.8370 H         1 ZLK1        0.0000
     43 H2         -2.5550    4.4460   -1.9470 H         1 ZLK1        0.0000
     44 H3         -1.9030    4.9420   -0.3660 H         1 ZLK1        0.0000
     45 H4          2.1230    1.3650   -2.3950 H         1 ZLK1        0.0000
     46 H5          1.3940    2.9460   -2.7650 H         1 ZLK1        0.0000
     47 H6          2.0610    4.9730   -1.2110 H         1 ZLK1        0.0000
     48 H7          3.2480    5.9800    1.6620 H         1 ZLK1        0.0000
     49 H8          4.9360    5.7090    1.1670 H         1 ZLK1        0.0000
     50 H9          3.7930    6.4850    0.0440 H         1 ZLK1        0.0000
     51 H10         3.3170    0.0880   -0.4150 H         1 ZLK1        0.0000
     52 H11         5.5750   -3.3090   -1.5030 H         1 ZLK1        0.0000
     53 H12         6.9860   -5.0750   -1.1630 H         1 ZLK1        0.0000
     54 H13         6.7050   -4.9600    0.5970 H         1 ZLK1        0.0000
     55 H14         5.9010   -7.1270   -0.9290 H         1 ZLK1        0.0000
     56 H15         5.0610   -6.6200    0.5700 H         1 ZLK1        0.0000
     57 H16         4.3530   -5.9260   -2.3350 H         1 ZLK1        0.0000
     58 H17         3.2730   -6.5430   -1.0430 H         1 ZLK1        0.0000
     59 H18         3.3250   -4.4490    0.1510 H         1 ZLK1        0.0000
     60 H19         3.3160   -3.8940   -1.5530 H         1 ZLK1        0.0000
     61 H20         6.0690    1.2910    2.6260 H         1 ZLK1        0.0000
     62 H21         5.4680    3.6420    2.2770 H         1 ZLK1        0.0000
     63 H22         1.0230   -0.1960   -0.9630 H         1 ZLK1        0.0000
     64 H23        -1.0620   -0.9180    0.1210 H         1 ZLK1        0.0000
     65 H24        -2.6950    3.0090   -0.4300 H         1 ZLK1        0.0000
     66 H25        -7.2630    0.2800    1.2830 H         1 ZLK1        0.0000
     67 H26        -8.9010    0.3500   -0.5540 H         1 ZLK1        0.0000
     68 H27        -8.5780   -1.0610   -2.5460 H         1 ZLK1        0.0000
     69 H28        -6.6180   -2.5430   -2.7000 H         1 ZLK1        0.0000
     70 H29        -3.7870   -2.3060   -1.2680 H         1 ZLK1        0.0000
     71 H30        -4.4040   -3.2650    0.0980 H         1 ZLK1        0.0000
     72 H31        -4.8600   -3.6940   -1.5680 H         1 ZLK1        0.0000
     73 H32         5.3170   -1.0940    2.2350 H         1 ZLK1        0.0000
     74 H33        -2.6440   -1.3050    0.9750 H         1 ZLK1        0.0000
@<TRIPOS>BOND
     1   39   41 2
     2   30   31 1
     3   29   30 2
     4   25   30 1
     5   28   29 1
     6   25   41 1
     7   34   41 1
     8   40   41 2
     9   25   26 2
    10   27   28 2
    11   24   34 1
    12   26   27 1
    13   20   21 2
    14   21   22 1
    15   22   24 1
    16   24   38 2
    17    4   20 1
    18   22   23 2
    19    8   32 1
    20    7   32 1
    21    6    7 2
    22    4    5 1
    23    3    4 2
    24    9   32 1
    25    3   23 1
    26    5    6 1
    27    1    6 1
    28    3   35 1
    29    1    9 2
    30    9   19 1
    31    1   10 1
    32    2   35 1
    33   18   19 2
    34   10   11 2
    35   11   18 1
    36   11   33 1
    37   12   36 2
    38   12   33 1
    39   12   37 1
    40   13   37 1
    41   13   14 1
    42   13   17 1
    43   14   15 1
    44   16   17 1
    45   15   16 1
    46    2   42 1
    47    2   43 1
    48    2   44 1
    49    5   45 1
    50    5   46 1
    51    7   47 1
    52    8   48 1
    53    8   49 1
    54    8   50 1
    55   10   51 1
    56   13   52 1
    57   14   53 1
    58   14   54 1
    59   15   55 1
    60   15   56 1
    61   16   57 1
    62   16   58 1
    63   17   59 1
    64   17   60 1
    65   18   61 1
    66   19   62 1
    67   20   63 1
    68   21   64 1
    69   23   65 1
    70   26   66 1
    71   27   67 1
    72   28   68 1
    73   29   69 1
    74   31   70 1
    75   31   71 1
    76   31   72 1
    77   33   73 1
    78   34   74 1
@<TRIPOS>SUBSTRUCTURE
     1 ZLK1        1 RESIDUE           4 A     ZLK     0 ROOT
