# created with PyMOL 2.3.5
@<TRIPOS>MOLECULE
F7N
68 71 1 0 0
SMALL
USER_CHARGES


@<TRIPOS>ATOM
      1 C4         -6.7390    0.9170    1.9570 C.3       1 F7N1        0.0000
      2 C5         -5.2130    0.8480    2.0650 C.3       1 F7N1        0.0000
      3 C6         -4.6420    0.2780    0.7620 C.3       1 F7N1        0.0000
      4 C8         -4.3410    3.1480   -1.4930 C.3       1 F7N1        0.0000
      5 C10         1.8260   -2.5980    1.9290 C.3       1 F7N1        0.0000
      6 C13         2.9000   -0.2920    0.6630 C.2       1 F7N1        0.0000
      7 C17         4.7820    1.1230    0.2550 C.2       1 F7N1        0.0000
      8 C20        -1.9250   -2.5180   -1.2670 C.3       1 F7N1        0.0000
      9 C21        -0.6400   -1.7490   -0.8970 C.3       1 F7N1        0.0000
     10 C22        -1.0890   -0.3940   -0.3220 C.3       1 F7N1        0.0000
     11 C24         0.1400   -2.5160    0.1390 C.2       1 F7N1        0.0000
     12 C26         0.5470   -2.8820   -2.7800 C.3       1 F7N1        0.0000
     13 C1         -5.1030    1.1510   -0.4090 C.3       1 F7N1        0.0000
     14 C11         3.2970   -2.6400    1.5200 C.3       1 F7N1        0.0000
     15 C12         1.4050   -0.4760    0.6560 C.3       1 F7N1        0.0000
     16 C14         3.7670   -1.2810    1.0680 C.2       1 F7N1        0.0000
     17 C16         5.5940    0.0890    0.6810 C.2       1 F7N1        0.0000
     18 C18         3.4100    0.9320    0.2450 C.2       1 F7N1        0.0000
     19 C19        -3.0180   -1.8870   -0.3690 C.3       1 F7N1        0.0000
     20 C2         -6.6330    1.2080   -0.4210 C.3       1 F7N1        0.0000
     21 C23        -2.6310   -0.3870   -0.3630 C.3       1 F7N1        0.0000
     22 C25         0.2180   -1.5300   -2.1450 C.3       1 F7N1        0.0000
     23 C27        -0.5510   -0.6680   -3.1480 C.3       1 F7N1        0.0000
     24 C29         5.3780    2.4330   -0.1910 C.3       1 F7N1        0.0000
     25 F30         5.0200    2.6800   -1.5210 F         1 F7N1        0.0000
     26 F31         4.8950    3.4650    0.6210 F         1 F7N1        0.0000
     27 F32         6.7720    2.3710   -0.0870 F         1 F7N1        0.0000
     28 N15         5.0760   -1.0560    1.0670 N.2       1 F7N1        0.0000
     29 N33        -3.1750    0.2790    0.8280 N.4       1 F7N1        0.0000
     30 N9          1.0810   -1.8900    0.8740 N.pl3     1 F7N1        0.0000
     31 O28        -0.0780   -3.6960    0.3120 O.2       1 F7N1        0.0000
     32 O3         -7.1000    1.7180    0.8300 O.3       1 F7N1        0.0000
     33 O7         -4.5770    2.4710   -0.2570 O.3       1 F7N1        0.0000
     34 H37        -7.1400   -0.0890    1.8320 H         1 F7N1        0.0000
     35 H38        -7.1480    1.3610    2.8650 H         1 F7N1        0.0000
     36 H39        -4.8140    1.8490    2.2310 H         1 F7N1        0.0000
     37 H40        -4.9360    0.2030    2.8980 H         1 F7N1        0.0000
     38 H41        -5.0010   -0.7410    0.6220 H         1 F7N1        0.0000
     39 H42        -3.6230    2.5820   -2.0860 H         1 F7N1        0.0000
     40 H43        -5.2780    3.2370   -2.0440 H         1 F7N1        0.0000
     41 H44        -3.9430    4.1430   -1.2920 H         1 F7N1        0.0000
     42 H45         1.4430   -3.6130    2.0330 H         1 F7N1        0.0000
     43 H46         1.7220   -2.0660    2.8750 H         1 F7N1        0.0000
     44 H55        -2.1660   -2.3740   -2.3200 H         1 F7N1        0.0000
     45 H56        -1.8110   -3.5790   -1.0450 H         1 F7N1        0.0000
     46 H58        -0.7430   -0.2910    0.7060 H         1 F7N1        0.0000
     47 H57        -0.6950    0.4190   -0.9320 H         1 F7N1        0.0000
     48 H62        -0.3710   -3.3480   -3.1390 H         1 F7N1        0.0000
     49 H63         1.2300   -2.7340   -3.6170 H         1 F7N1        0.0000
     50 H61         1.0160   -3.5280   -2.0390 H         1 F7N1        0.0000
     51 H34        -4.7470    0.7220   -1.3450 H         1 F7N1        0.0000
     52 H47         3.8970   -2.9620    2.3710 H         1 F7N1        0.0000
     53 H48         3.4220   -3.3510    0.7030 H         1 F7N1        0.0000
     54 H49         0.9620    0.1250    1.4510 H         1 F7N1        0.0000
     55 H50         1.0050   -0.1560   -0.3060 H         1 F7N1        0.0000
     56 H51         6.6660    0.2230    0.6970 H         1 F7N1        0.0000
     57 H52         2.7490    1.7200   -0.0830 H         1 F7N1        0.0000
     58 H53        -4.0060   -2.0300   -0.8060 H         1 F7N1        0.0000
     59 H54        -2.9760   -2.3010    0.6380 H         1 F7N1        0.0000
     60 H36        -6.9660    1.8620   -1.2270 H         1 F7N1        0.0000
     61 H35        -7.0330    0.2060   -0.5770 H         1 F7N1        0.0000
     62 H59        -2.9870    0.1020   -1.2710 H         1 F7N1        0.0000
     63 H60         1.1430   -1.0260   -1.8650 H         1 F7N1        0.0000
     64 H65        -1.4760   -1.1730   -3.4270 H         1 F7N1        0.0000
     65 H66        -0.7850    0.2950   -2.6950 H         1 F7N1        0.0000
     66 H64         0.0610   -0.5130   -4.0370 H         1 F7N1        0.0000
     67 H67        -2.8400    1.2300    0.8630 H         1 F7N1        0.0000
     68 H68        -2.8750   -0.2140    1.6550 H         1 F7N1        0.0000
@<TRIPOS>BOND
     1   20   32 1
     2   13   20 1
     3    1   32 1
     4    1    2 1
     5    3   13 1
     6   13   33 1
     7    2    3 1
     8    3   29 1
     9    8   19 1
    10   19   21 1
    11    8    9 1
    12   11   31 2
    13   21   29 1
    14    4   33 1
    15   10   21 1
    16    9   11 1
    17   11   30 1
    18    9   10 1
    19    9   22 1
    20   15   30 1
    21    6   15 1
    22   22   23 1
    23    5   30 1
    24   12   22 1
    25    6   18 2
    26    7   18 1
    27   24   25 1
    28    6   16 1
    29   24   26 1
    30    5   14 1
    31    7   24 1
    32   24   27 1
    33    7   17 2
    34   14   16 1
    35   16   28 2
    36   17   28 1
    37    1   34 1
    38    1   35 1
    39    2   36 1
    40    2   37 1
    41    3   38 1
    42    4   39 1
    43    4   40 1
    44    4   41 1
    45    5   42 1
    46    5   43 1
    47    8   44 1
    48    8   45 1
    49   10   46 1
    50   10   47 1
    51   12   48 1
    52   12   49 1
    53   12   50 1
    54   13   51 1
    55   14   52 1
    56   14   53 1
    57   15   54 1
    58   15   55 1
    59   17   56 1
    60   18   57 1
    61   19   58 1
    62   19   59 1
    63   20   60 1
    64   20   61 1
    65   21   62 1
    66   22   63 1
    67   23   64 1
    68   23   65 1
    69   23   66 1
    70   29   67 1
    71   29   68 1
@<TRIPOS>SUBSTRUCTURE
     1 F7N1        1 RESIDUE           4 A     F7N     0 ROOT
