@<TRIPOS>MOLECULE
    COV
  126   128     0     0     0
SMALL
USER_CHARGES


@<TRIPOS>ATOM
      1 X         -17.7400   35.8860    8.7050 N.4        1 COV      0.000000
      2 X         -18.1370   36.9400    7.7600 C.3        1 COV      0.000000
      3 X         -17.4190   36.7390    6.4400 C.2        1 COV      0.000000
      4 X         -18.0430   36.7300    5.3770 O.2        1 COV      0.000000
      5 X         -17.7890   38.3210    8.3280 C.3        1 COV      0.000000
      6 X         -17.7960   39.4290    7.3210 C.ar       1 COV      0.000000
      7 X         -18.9560   40.1190    7.0510 C.ar       1 COV      0.000000
      8 X         -16.6390   39.7950    6.6590 C.ar       1 COV      0.000000
      9 X         -18.9680   41.1660    6.1390 C.ar       1 COV      0.000000
     10 X         -16.6440   40.8170    5.7330 C.ar       1 COV      0.000000
     11 X         -17.8130   41.5040    5.4660 C.ar       1 COV      0.000000
     12 X         -19.2127   36.8833    7.5934 H          1 COV      0.000000
     13 X         -16.7927   38.2668    8.7667 H          1 COV      0.000000
     14 X         -18.5028   38.5627    9.1155 H          1 COV      0.000000
     15 X         -19.8698   39.8421    7.5557 H          1 COV      0.000000
     16 X         -15.7175   39.2729    6.8701 H          1 COV      0.000000
     17 X         -19.8803   41.7146    5.9571 H          1 COV      0.000000
     18 X         -15.7333   41.0808    5.2159 H          1 COV      0.000000
     19 X         -17.8218   42.2996    4.7357 H          1 COV      0.000000
     20 X         -17.9742   34.9822    8.3198 H          1 COV      0.000000
     21 X         -18.2290   36.0162    9.5791 H          1 COV      0.000000
     22 X         -16.7441   35.9356    8.8658 H          1 COV      0.000000
     23 X         -16.1040   36.5640    6.5330 N.am       2 COV      0.000000
     24 X         -15.2620   36.3810    5.3560 C.3        2 COV      0.000000
     25 X         -15.5350   35.0780    4.6060 C.2        2 COV      0.000000
     26 X         -15.3090   35.0120    3.3850 O.2        2 COV      0.000000
     27 X         -13.8050   36.4650    5.7560 C.3        2 COV      0.000000
     28 X         -15.6748   36.5576    7.4473 H          2 COV      0.000000
     29 X         -15.4654   37.2052    4.6723 H          2 COV      0.000000
     30 X         -13.1774   36.3280    4.8754 H          2 COV      0.000000
     31 X         -13.5830   35.6855    6.4848 H          2 COV      0.000000
     32 X         -13.6049   37.4418    6.1964 H          2 COV      0.000000
     33 N         -16.0640   34.0750    5.3210 N.am       3 COV      0.000000
     34 CA        -16.4530   32.7990    4.7030 C.3        3 COV      0.000000
     35 C         -17.7830   32.8980    3.9420 C.2        3 COV      0.000000
     36 O         -18.6520   32.0420    4.0770 O.2        3 COV      0.000000
     37 CB        -16.4930   31.6630    5.7490 C.3        3 COV      0.000000
     38 CG        -15.2350   30.8170    5.8060 C.3        3 COV      0.000000
     39 CD        -15.3170   29.7250    6.8690 C.3        3 COV      0.000000
     40 CE        -15.0360   30.2780    8.2420 C.3        3 COV      0.000000
     41 NZ        -13.6670   30.0320    8.6100 N.2        3 COV      0.000000
     42 H         -16.1994   34.1997    6.3141 H          3 COV      0.000000
     43 HA        -15.6822   32.5429    3.9761 H          3 COV      0.000000
     44 HB2       -16.6477   32.1098    6.7311 H          3 COV      0.000000
     45 HB3       -17.3392   31.0135    5.5250 H          3 COV      0.000000
     46 HG2       -14.3879   31.4641    6.0335 H          3 COV      0.000000
     47 HG3       -15.0753   30.3530    4.8327 H          3 COV      0.000000
     48 HD2       -16.3176   29.2929    6.8580 H          3 COV      0.000000
     49 HD3       -14.5885   28.9472    6.6403 H          3 COV      0.000000
     50 HE2       -15.6944   29.7964    8.9649 H          3 COV      0.000000
     51 HE3       -15.2226   31.3519    8.2435 H          3 COV      0.000000
     52 Y0        -17.9450   33.9510    3.1470 N.am       4 COV      0.000000
     53 X         -18.9860   34.0220    2.1210 C.3        4 COV      0.000000
     54 X         -18.3030   34.2660    0.7640 C.2        4 COV      0.000000
     55 X         -18.8890   34.8220   -0.1690 O.2        4 COV      0.000000
     56 X         -19.9820   35.1510    2.4300 C.3        4 COV      0.000000
     57 X         -19.2610   36.3810    2.6060 O.3        4 COV      0.000000
     58 X         -20.7740   34.8380    3.6990 C.3        4 COV      0.000000
     59 X         -17.3212   34.7378    3.2561 H          4 COV      0.000000
     60 X         -19.5204   33.0726    2.0871 H          4 COV      0.000000
     61 X         -20.6731   35.2576    1.5938 H          4 COV      0.000000
     62 X         -18.5549   36.2502    3.2431 H          4 COV      0.000000
     63 X         -21.4736   35.6492    3.9007 H          4 COV      0.000000
     64 X         -20.0873   34.7335    4.5390 H          4 COV      0.000000
     65 X         -21.3257   33.9079    3.5628 H          4 COV      0.000000
     66 X         -17.0410   33.8490    0.6690 N.am       5 COV      0.000000
     67 X         -16.2710   33.9490   -0.5610 C.3        5 COV      0.000000
     68 X         -16.5370   32.7660   -1.4910 C.2        5 COV      0.000000
     69 X         -16.1710   32.8010   -2.6670 O.2        5 COV      0.000000
     70 X         -14.7810   34.0230   -0.2410 C.3        5 COV      0.000000
     71 X         -14.3830   32.9330    0.5830 O.3        5 COV      0.000000
     72 X         -16.6011   33.4470    1.4845 H          5 COV      0.000000
     73 X         -16.5598   34.8652   -1.0760 H          5 COV      0.000000
     74 X         -17.0495   31.8930   -1.1148 H          5 COV      0.000000
     75 X         -14.2144   33.9919   -1.1717 H          5 COV      0.000000
     76 X         -14.5709   34.9593    0.2761 H          5 COV      0.000000
     77 X         -13.4440   32.9998    0.7713 H          5 COV      0.000000
     78 C0         -9.2280   32.8320    6.4870 C.3        6 COV      0.000000
     79 C1         -4.7510   36.6930    3.6260 C.3        6 COV      0.000000
     80 C2         -5.0620   38.1930    3.4640 C.3        6 COV      0.000000
     81 C3         -6.2300   38.5700    2.5580 C.3        6 COV      0.000000
     82 C4         -7.2920   37.4920    2.4300 C.3        6 COV      0.000000
     83 C5         -7.1430   36.3190    3.3820 C.2        6 COV      0.000000
     84 C6         -6.0270   36.0020    4.0950 C.2        6 COV      0.000000
     85 C7         -5.8550   34.8980    5.1000 C.2        6 COV      0.000000
     86 C8         -6.8350   34.1850    5.6530 C.2        6 COV      0.000000
     87 C9         -6.7470   33.1310    6.7060 C.2        6 COV      0.000000
     88 C10        -7.8810   32.4950    7.1000 C.2        6 COV      0.000000
     89 C11        -7.8480   31.4550    8.1370 C.2        6 COV      0.000000
     90 C12        -8.9100   30.7950    8.5690 C.2        6 COV      0.000000
     91 C13       -10.2440   31.0170    8.0700 C.2        6 COV      0.000000
     92 C14       -11.2670   30.2910    8.5520 C.2        6 COV      0.000000
     93 C15       -12.6430   30.5410    8.0890 C.2        6 COV      0.000000
     94 C16        -3.6370   36.6860    4.6900 C.3        6 COV      0.000000
     95 C17        -4.2670   36.0220    2.3400 C.3        6 COV      0.000000
     96 C18        -8.3090   35.3800    3.2800 C.3        6 COV      0.000000
     97 C19        -5.4290   32.7690    7.3520 C.3        6 COV      0.000000
     98 C20       -10.4490   32.0680    7.0070 C.3        6 COV      0.000000
     99 H02        -9.1561   32.6435    5.4158 H          6 COV      0.000000
    100 H03        -9.4086   33.8972    6.6317 H          6 COV      0.000000
    101 H22        -5.2744   38.5925    4.4557 H          6 COV      0.000000
    102 H23        -4.1666   38.6856    3.0850 H          6 COV      0.000000
    103 H32        -6.7002   39.4666    2.9619 H          6 COV      0.000000
    104 H33        -5.8420   38.7969    1.5650 H          6 COV      0.000000
    105 H42        -7.2583   37.1054    1.4114 H          6 COV      0.000000
    106 H43        -8.2683   37.9480    2.5941 H          6 COV      0.000000
    107 H7         -4.8453   34.6612    5.4012 H          6 COV      0.000000
    108 H8         -7.8293   34.3989    5.2896 H          6 COV      0.000000
    109 H11        -6.8917   31.2128    8.5766 H          6 COV      0.000000
    110 H12        -8.7699   30.0492    9.3375 H          6 COV      0.000000
    111 H14       -11.0791   29.5191    9.2837 H          6 COV      0.000000
    112 H15       -12.7805   31.2043    7.2478 H          6 COV      0.000000
    113 H202      -11.1403   32.8059    7.4139 H          6 COV      0.000000
    114 H203      -10.9328   31.5912    6.1545 H          6 COV      0.000000
    115 H161       -3.3311   35.6591    4.8898 H          6 COV      0.000000
    116 H162       -4.0095   37.1391    5.6087 H          6 COV      0.000000
    117 H163       -2.7822   37.2552    4.3248 H          6 COV      0.000000
    118 H171       -5.0665   36.0358    1.5993 H          6 COV      0.000000
    119 H172       -3.9864   34.9903    2.5522 H          6 COV      0.000000
    120 H173       -3.4028   36.5611    1.9519 H          6 COV      0.000000
    121 H181       -8.8440   35.5641    2.3483 H          6 COV      0.000000
    122 H182       -7.9491   34.3512    3.2948 H          6 COV      0.000000
    123 H183       -8.9808   35.5421    4.1229 H          6 COV      0.000000
    124 H191       -4.6332   33.3758    6.9199 H          6 COV      0.000000
    125 H192       -5.2168   31.7142    7.1776 H          6 COV      0.000000
    126 H193       -5.4866   32.9555    8.4244 H          6 COV      0.000000
@<TRIPOS>BOND
     1    1    2 1
     2    1   20 1
     3    1   21 1
     4    1   22 1
     5    2    3 1
     6    2    5 1
     7    2   12 1
     8    3    4 2
     9    3   23 am
    10    5    6 1
    11    5   13 1
    12    5   14 1
    13    6    7 ar
    14    6    8 ar
    15    7    9 ar
    16    7   15 1
    17    8   10 ar
    18    8   16 1
    19    9   11 ar
    20    9   17 1
    21   10   11 ar
    22   10   18 1
    23   11   19 1
    24   23   24 1
    25   23   28 1
    26   24   25 1
    27   24   27 1
    28   24   29 1
    29   25   26 2
    30   25   33 am
    31   27   30 1
    32   27   31 1
    33   27   32 1
    34   33   34 1
    35   33   42 1
    36   34   35 1
    37   34   37 1
    38   34   43 1
    39   35   36 2
    40   35   52 am
    41   37   38 1
    42   37   44 1
    43   37   45 1
    44   38   39 1
    45   38   46 1
    46   38   47 1
    47   39   40 1
    48   39   48 1
    49   39   49 1
    50   40   41 1
    51   40   50 1
    52   40   51 1
    53   41   93 2
    54   52   53 1
    55   52   59 1
    56   53   54 1
    57   53   56 1
    58   53   60 1
    59   54   55 2
    60   54   66 am
    61   56   57 1
    62   56   58 1
    63   56   61 1
    64   57   62 1
    65   58   63 1
    66   58   64 1
    67   58   65 1
    68   66   67 1
    69   66   72 1
    70   67   68 1
    71   67   70 1
    72   67   73 1
    73   68   69 2
    74   68   74 1
    75   70   71 1
    76   70   75 1
    77   70   76 1
    78   71   77 1
    79   78   88 1
    80   78   98 1
    81   78   99 1
    82   78  100 1
    83   79   80 1
    84   79   84 1
    85   79   94 1
    86   79   95 1
    87   80   81 1
    88   80  101 1
    89   80  102 1
    90   81   82 1
    91   81  103 1
    92   81  104 1
    93   82   83 1
    94   82  105 1
    95   82  106 1
    96   83   84 2
    97   83   96 1
    98   84   85 2
    99   85   86 2
   100   85  107 1
   101   86   87 2
   102   86  108 1
   103   87   88 2
   104   87   97 1
   105   88   89 2
   106   89   90 2
   107   89  109 1
   108   90   91 2
   109   90  110 1
   110   91   92 2
   111   91   98 1
   112   92   93 2
   113   92  111 1
   114   93  112 1
   115   94  115 1
   116   94  116 1
   117   94  117 1
   118   95  118 1
   119   95  119 1
   120   95  120 1
   121   96  121 1
   122   96  122 1
   123   96  123 1
   124   97  124 1
   125   97  125 1
   126   97  126 1
   127   98  113 1
   128   98  114 1
