# created with PyMOL 2.3.5
@<TRIPOS>MOLECULE
ACY
7 6 1 0 0
SMALL
USER_CHARGES


@<TRIPOS>ATOM
      1 C           0.0120   -0.0560    0.0020 C.2       1 ACY1        0.0000
      2 O           0.2610   -1.2380   -0.0000 O.co2     1 ACY1        0.0000
      3 OXT         1.0110    0.8400   -0.0000 O.3       1 ACY1        0.0000
      4 CH3        -1.4210    0.4120   -0.0000 C.3       1 ACY1        0.0000
      5 HH31       -1.4479    1.5017    0.0023 H         1 ACY1        0.0000
      6 HH32       -1.9275    0.0345    0.8883 H         1 ACY1        0.0000
      7 HH33       -1.9241    0.0380   -0.8917 H         1 ACY1        0.0000
@<TRIPOS>BOND
     1    1    2 2
     2    1    3 1
     3    1    4 1
     4    5    4 1
     5    6    4 1
     6    7    4 1
@<TRIPOS>SUBSTRUCTURE
     1 ACY1        1 RESIDUE           4 A     ACY     0 ROOT
