# created with PyMOL 2.3.5
@<TRIPOS>MOLECULE
MHA
23 22 1                 
SMALL
USER_CHARGES
@<TRIPOS>ATOM
1	  N1	0.013	-0.089	-0.069	N.3	1	MHA0	0.000	
2	  C1	-0.625	-0.692	-1.247	C.3	1	MHA0	0.000	
3	  C2	-0.189	0.044	-2.487	C.2	1	MHA0	0.000	
4	  O1	-0.690	-0.300	-3.684	O.3	1	MHA0	0.000	
5	  O2	0.611	0.945	-2.405	O.co2	1	MHA0	0.000	
6	  C3	-0.623	-0.690	1.109	C.3	1	MHA0	0.000	
7	  C4	-1.897	0.050	1.425	C.2	1	MHA0	0.000	
8	  O3	-2.727	-0.415	2.371	O.3	1	MHA0	0.000	
9	  O4	-2.171	1.063	0.826	O.co2	1	MHA0	0.000	
10	  C5	1.411	-0.539	-0.070	C.3	1	MHA0	0.000	
11	  C6	2.128	0.045	1.118	C.2	1	MHA0	0.000	
12	  O5	1.533	0.767	1.890	O.2	1	MHA0	0.000	
13	  N2	3.431	-0.232	1.323	N.pl3	1	MHA0	0.000	
14	HC11	-0.331	-1.738	-1.324	 H	1	MHA0	0.000	
15	HC12	-1.708	-0.625	-1.147	 H	1	MHA0	0.000	
16	 HO1	-0.410	0.172	-4.480	 H	1	MHA0	0.000	
17	HC31	-0.852	-1.736	0.905	 H	1	MHA0	0.000	
18	HC32	0.054	-0.626	1.960	 H	1	MHA0	0.000	
19	 HO3	-3.544	0.059	2.574	 H	1	MHA0	0.000	
20	HC51	1.898	-0.209	-0.988	 H	1	MHA0	0.000	
21	HC52	1.442	-1.627	-0.014	 H	1	MHA0	0.000	
22	HN21	3.893	0.144	2.088	 H	1	MHA0	0.000	
23	HN22	3.906	-0.812	0.707	 H	1	MHA0	0.000	
@<TRIPOS>BOND
1 1 2 1
2 1 6 1
3 1 10 1
4 2 3 1
5 2 14 1
6 2 15 1
7 3 4 1
8 3 5 2
9 4 16 1
10 6 7 1
11 6 17 1
12 6 18 1
13 7 8 1
14 7 9 2
15 8 19 1
16 10 11 1
17 10 20 1
18 10 21 1
19 11 12 2
20 11 13 1
21 13 22 1
22 13 23 1
@<TRIPOS>SUBSTRUCTURE
1	MHA0	1	GROUP	1 ****	MHA
