@<TRIPOS>MOLECULE
CO1
58 66 2 0 0
SMALL
NO_CHARGES


@<TRIPOS>ATOM
      1 O24        98.4590  139.8620  143.2770 O.3       1 CO1658      0.0000
      2 C22        99.1580  139.1720  142.2140 C.3       1 CO1658      0.0000
      3 C18       100.5220  139.9120  142.0030 C.3       1 CO1658      0.0000
      4 C14       101.3570  139.1910  140.8910 C.2       1 CO1658      0.0000
      5 C9        102.6800  138.8850  141.0740 C.2       1 CO1658      0.0000
      6 C4        103.5870  138.6420  139.8630 C.3       1 CO1658      0.0000
      7 C1        102.8970  138.0080  138.5690 C.3       1 CO1658      0.0000
      8 C3        101.4100  137.5210  138.8450 C.3       1 CO1658      0.0000
      9 C8        100.6780  136.8050  137.6220 C.3       1 CO1658      0.0000
     10 C11       101.6060  135.7800  136.9210 C.3       1 CO1658      0.0000
     11 C5        103.0550  136.3500  136.5910 C.3       1 CO1658      0.0000
     12 C12       102.8890  137.5280  135.5310 C.3       1 CO1658      0.0000
     13 C10       104.1210  135.2430  136.2060 C.3       1 CO1658      0.0000
     14 C13       105.4680  135.8690  136.6570 C.3       1 CO1658      0.0000
     15 C6        105.1400  137.0050  137.6400 C.3       1 CO1658      0.0000
     16 C2        103.6540  136.7830  137.9670 C.3       1 CO1658      0.0000
     17 C17       104.0480  134.7380  134.6700 C.3       1 CO1658      0.0000
     18 C21       102.9690  133.6560  134.3580 C.3       1 CO1658      0.0000
     19 C20       105.3760  134.3390  133.9760 C.3       1 CO1658      0.0000
     20 C23       105.5070  134.9600  132.5870 C.3       1 CO1658      0.0000
     21 C25       106.5180  134.1080  131.8040 C.3       1 CO1658      0.0000
     22 O27       107.8900  134.3680  131.7620 O.3       1 CO1658      0.0000
     23 C26       107.1140  134.6200  130.5310 C.3       1 CO1658      0.0000
     24 C28       107.2680  133.7350  129.2630 C.3       1 CO1658      0.0000
     25 C29       106.9070  136.0690  130.2370 C.3       1 CO1658      0.0000
     26 C7        100.6330  138.7770  139.4950 C.3       1 CO1658      0.0000
     27 C16       100.7020  140.0050  138.5190 C.3       1 CO1658      0.0000
     28 C15        99.1610  138.3090  139.7760 C.3       1 CO1658      0.0000
     29 C19        98.3610  139.0630  140.8610 C.3       1 CO1658      0.0000
     30 O24        96.2960  145.9270  160.5410 O.3       2 CO1659      0.0000
     31 C22        96.4970  145.1950  159.3080 C.3       2 CO1659      0.0000
     32 C18        97.6210  144.1120  159.5300 C.3       2 CO1659      0.0000
     33 C14        97.9620  143.3580  158.1980 C.2       2 CO1659      0.0000
     34 C9         97.9820  141.9840  158.1920 C.2       2 CO1659      0.0000
     35 C4         98.0510  141.1960  156.8940 C.3       2 CO1659      0.0000
     36 C1         98.8050  142.0120  155.7740 C.3       2 CO1659      0.0000
     37 C3         98.1430  143.4320  155.5230 C.3       2 CO1659      0.0000
     38 C8         98.6430  144.2510  154.2500 C.3       2 CO1659      0.0000
     39 C11        98.8910  143.3330  153.0350 C.3       2 CO1659      0.0000
     40 C5         99.7720  142.0600  153.4280 C.3       2 CO1659      0.0000
     41 C12       101.1770  142.5190  154.0560 C.3       2 CO1659      0.0000
     42 C10        99.9120  140.9990  152.2800 C.3       2 CO1659      0.0000
     43 C13        99.8270  139.6020  152.9710 C.3       2 CO1659      0.0000
     44 C6         99.4040  139.8400  154.4290 C.3       2 CO1659      0.0000
     45 C2         98.8540  141.2730  154.4080 C.3       2 CO1659      0.0000
     46 C17       101.2110  141.2880  151.3610 C.3       2 CO1659      0.0000
     47 C21       101.0590  142.5230  150.4110 C.3       2 CO1659      0.0000
     48 C20       101.7240  140.0670  150.6060 C.3       2 CO1659      0.0000
     49 C23       100.6050  139.5540  149.7220 C.3       2 CO1659      0.0000
     50 C25       101.0810  138.3060  149.0310 C.3       2 CO1659      0.0000
     51 O27       101.5710  138.4020  147.7310 O.3       2 CO1659      0.0000
     52 C26       100.2400  137.8000  147.9080 C.3       2 CO1659      0.0000
     53 C28       100.1430  136.2840  147.7710 C.3       2 CO1659      0.0000
     54 C29        99.0080  138.6180  147.5360 C.3       2 CO1659      0.0000
     55 C7         98.2370  144.2870  156.8850 C.3       2 CO1659      0.0000
     56 C16        99.6530  144.9890  157.0320 C.3       2 CO1659      0.0000
     57 C15        97.0750  145.3350  156.8030 C.3       2 CO1659      0.0000
     58 C19        96.8480  146.1400  158.0990 C.3       2 CO1659      0.0000
@<TRIPOS>BOND
     1    1    2 1
     2    2    3 1
     3    2   29 1
     4    3    4 1
     5    4    5 2
     6    4   26 1
     7    5    6 1
     8    6    7 1
     9    7    8 1
    10    7   16 1
    11    8    9 1
    12    8   26 1
    13    9   10 1
    14   10   11 1
    15   11   12 1
    16   11   13 1
    17   11   16 1
    18   13   14 1
    19   13   17 1
    20   14   15 1
    21   15   16 1
    22   17   18 1
    23   17   19 1
    24   19   20 1
    25   20   21 1
    26   21   22 1
    27   21   23 1
    28   22   23 1
    29   23   24 1
    30   23   25 1
    31   26   27 1
    32   26   28 1
    33   28   29 1
    34   30   31 1
    35   31   32 1
    36   31   58 1
    37   32   33 1
    38   33   34 2
    39   33   55 1
    40   34   35 1
    41   35   36 1
    42   36   37 1
    43   36   45 1
    44   37   38 1
    45   37   55 1
    46   38   39 1
    47   39   40 1
    48   40   41 1
    49   40   42 1
    50   40   45 1
    51   42   43 1
    52   42   46 1
    53   43   44 1
    54   44   45 1
    55   46   47 1
    56   46   48 1
    57   48   49 1
    58   49   50 1
    59   50   51 1
    60   50   52 1
    61   51   52 1
    62   52   53 1
    63   52   54 1
    64   55   56 1
    65   55   57 1
    66   57   58 1
@<TRIPOS>SUBSTRUCTURE
     1 CO1658      1 RESIDUE           4 R     CO1     0 ROOT
     2 CO1659     30 RESIDUE           4 R     CO1     0 ROOT
