# created with PyMOL 2.3.5
@<TRIPOS>MOLECULE
3WC
34 36 1                 
SMALL
USER_CHARGES
@<TRIPOS>ATOM
1	  C4	-0.107	-1.507	0.281	C.2	1	3WC0	0.000	
2	  C5	-1.460	-1.605	0.158	C.2	1	3WC0	0.000	
3	  C6	-2.142	-2.949	0.170	C.3	1	3WC0	0.000	
4	  C8	2.333	1.237	0.357	C.3	1	3WC0	0.000	
5	 C10	3.846	1.291	0.578	C.3	1	3WC0	0.000	
6	 N12	4.519	0.498	-0.460	N.3	1	3WC0	0.000	
7	 C13	4.071	-0.901	-0.424	C.3	1	3WC0	0.000	
8	 C15	2.558	-0.955	-0.645	C.3	1	3WC0	0.000	
9	 C11	0.506	-0.246	0.268	C.2	1	3WC0	0.000	
10	 C20	-3.603	-0.445	-0.111	C.2	1	3WC0	0.000	
11	 C22	-1.528	0.826	0.014	C.2	1	3WC0	0.000	
12	 N10	1.885	-0.162	0.394	N.pl3	1	3WC0	0.000	
13	 C24	-2.272	2.011	-0.123	C.2	1	3WC0	0.000	
14	 C26	-3.626	1.947	-0.248	C.2	1	3WC0	0.000	
15	 N11	-0.196	0.860	0.139	N.2	1	3WC0	0.000	
16	  C2	-2.206	-0.417	0.020	C.2	1	3WC0	0.000	
17	 C28	-4.291	0.723	-0.243	C.2	1	3WC0	0.000	
18	  H4	0.492	-2.399	0.393	 H	1	3WC0	0.000	
19	H61C	-2.404	-3.214	1.194	 H	1	3WC0	0.000	
20	H62C	-3.047	-2.902	-0.435	 H	1	3WC0	0.000	
21	H63C	-1.469	-3.701	-0.240	 H	1	3WC0	0.000	
22	H81C	1.830	1.800	1.143	 H	1	3WC0	0.000	
23	H82C	2.091	1.671	-0.613	 H	1	3WC0	0.000	
24	H101	4.185	2.325	0.523	 H	1	3WC0	0.000	
25	H102	4.085	0.882	1.560	 H	1	3WC0	0.000	
26	 H12	4.373	0.901	-1.374	 H	1	3WC0	0.000	
27	H131	4.574	-1.464	-1.210	 H	1	3WC0	0.000	
28	H132	4.313	-1.335	0.547	 H	1	3WC0	0.000	
29	H151	2.319	-0.546	-1.626	 H	1	3WC0	0.000	
30	H152	2.219	-1.990	-0.589	 H	1	3WC0	0.000	
31	 H20	-4.130	-1.388	-0.108	 H	1	3WC0	0.000	
32	 H28	-5.366	0.700	-0.345	 H	1	3WC0	0.000	
33	 H24	-1.772	2.968	-0.129	 H	1	3WC0	0.000	
34	 H26	-4.194	2.860	-0.352	 H	1	3WC0	0.000	
@<TRIPOS>BOND
1 1 2 1
2 1 9 2
3 2 3 1
4 2 16 2
5 4 5 1
6 4 12 1
7 5 6 1
8 6 7 1
9 7 8 1
10 8 12 1
11 9 12 1
12 9 15 1
13 10 17 2
14 10 16 1
15 11 13 1
16 11 15 2
17 11 16 1
18 13 14 2
19 14 17 1
20 1 18 1
21 3 19 1
22 3 20 1
23 3 21 1
24 4 22 1
25 4 23 1
26 5 24 1
27 5 25 1
28 6 26 1
29 7 27 1
30 7 28 1
31 8 29 1
32 8 30 1
33 10 31 1
34 17 32 1
35 13 33 1
36 14 34 1
@<TRIPOS>SUBSTRUCTURE
1	3WC0	1	GROUP	1 ****	3WC
