# created with PyMOL 2.3.5
@<TRIPOS>MOLECULE
SCN
3 2 1                   
SMALL
USER_CHARGES
@<TRIPOS>ATOM
1	   S	-1.085	0.000	0.000	S.3	1	SCN0	0.000	
2	   C	0.725	0.000	0.000	C.1	1	SCN0	0.000	
3	   N	1.861	0.000	0.000	N.1	1	SCN0	0.000	
@<TRIPOS>BOND
1 1 2 1
2 2 3 3
@<TRIPOS>SUBSTRUCTURE
1	SCN0	1	GROUP	1 ****	SCN
