# created with PyMOL 2.3.5
@<TRIPOS>MOLECULE
NV8
51 55 1 0 0
SMALL
USER_CHARGES


@<TRIPOS>ATOM
      1 C01         3.9090   -0.9550    0.3910 C.3       1 NV81        0.0000
      2 C02        -3.9650   -0.0010   -0.7200 C.2       1 NV81        0.0000
      3 C03        -5.1080    0.6540   -1.1810 C.2       1 NV81        0.0000
      4 C04        -6.0690    1.0650   -0.2830 C.2       1 NV81        0.0000
      5 C05        -5.9060    0.8320    1.0740 C.2       1 NV81        0.0000
      6 C06        -4.7800    0.1850    1.5430 C.2       1 NV81        0.0000
      7 C07        -3.8050   -0.2350    0.6540 C.2       1 NV81        0.0000
      8 C08         1.8820    1.8050    0.2270 C.2       1 NV81        0.0000
      9 C09         1.3010    2.1810   -0.9700 C.2       1 NV81        0.0000
     10 C10         1.6240    3.3970   -1.5430 C.2       1 NV81        0.0000
     11 C11         2.5260    4.2370   -0.9190 C.2       1 NV81        0.0000
     12 C12         4.2610   -2.4440    0.1450 C.3       1 NV81        0.0000
     13 C13         3.1070    3.8610    0.2780 C.2       1 NV81        0.0000
     14 C14         2.7850    2.6450    0.8510 C.2       1 NV81        0.0000
     15 C15         3.2330   -2.8300   -0.9520 C.3       1 NV81        0.0000
     16 C16         1.9880   -2.0120   -0.5580 C.3       1 NV81        0.0000
     17 C17         1.0240   -2.8950    0.2350 C.3       1 NV81        0.0000
     18 C18        -0.2380   -2.0940    0.5670 C.3       1 NV81        0.0000
     19 C19         0.0280   -0.7320   -1.4210 C.3       1 NV81        0.0000
     20 C20         1.2980   -1.4880   -1.8180 C.3       1 NV81        0.0000
     21 C21        -2.0750   -1.0230   -0.4230 C.2       1 NV81        0.0000
     22 N01         2.4400   -0.8900    0.2720 N.3       1 NV81        0.0000
     23 N02        -0.8650   -1.6300   -0.6770 N.pl3     1 NV81        0.0000
     24 N03        -2.8620   -0.5110   -1.3340 N.2       1 NV81        0.0000
     25 O01         1.8490    0.3450    2.3260 O.2       1 NV81        0.0000
     26 O02         0.1390   -0.0400    0.5440 O.2       1 NV81        0.0000
     27 O03        -2.6220   -0.8760    0.7960 O.3       1 NV81        0.0000
     28 S01         1.4650    0.2580    0.9610 S.O2      1 NV81        0.0000
     29 H01         4.2220   -0.6520    1.3900 H         1 NV81        0.0000
     30 H02         4.3790   -0.3220   -0.3610 H         1 NV81        0.0000
     31 H09        -5.2390    0.8390   -2.2370 H         1 NV81        0.0000
     32 H10        -6.9540    1.5720   -0.6380 H         1 NV81        0.0000
     33 H11        -6.6650    1.1590    1.7690 H         1 NV81        0.0000
     34 H12        -4.6600    0.0070    2.6010 H         1 NV81        0.0000
     35 H13         0.5960    1.5240   -1.4580 H         1 NV81        0.0000
     36 H14         1.1710    3.6900   -2.4780 H         1 NV81        0.0000
     37 H15         2.7790    5.1870   -1.3660 H         1 NV81        0.0000
     38 H03         5.2820   -2.5470   -0.2230 H         1 NV81        0.0000
     39 H18         4.1120   -3.0360    1.0480 H         1 NV81        0.0000
     40 H16         3.8120    4.5170    0.7660 H         1 NV81        0.0000
     41 H17         3.2390    2.3510    1.7860 H         1 NV81        0.0000
     42 H19         3.5910   -2.5360   -1.9380 H         1 NV81        0.0000
     43 H20         3.0180   -3.8990   -0.9200 H         1 NV81        0.0000
     44 H22         0.7550   -3.7670   -0.3620 H         1 NV81        0.0000
     45 H21         1.5030   -3.2190    1.1580 H         1 NV81        0.0000
     46 H23        -0.9380   -2.7280    1.1120 H         1 NV81        0.0000
     47 H04         0.0290   -1.2350    1.1820 H         1 NV81        0.0000
     48 H06         0.2930    0.1190   -0.7930 H         1 NV81        0.0000
     49 H05        -0.4790   -0.3770   -2.3180 H         1 NV81        0.0000
     50 H08         1.9720   -0.8160   -2.3480 H         1 NV81        0.0000
     51 H07         1.0360   -2.3260   -2.4640 H         1 NV81        0.0000
@<TRIPOS>BOND
     1   12   15 1
     2   15   16 1
     3    1   12 1
     4   16   17 1
     5   17   18 1
     6   16   20 1
     7   19   20 1
     8   16   22 1
     9   18   23 1
    10   19   23 1
    11   21   23 1
    12   21   24 2
    13   21   27 1
    14    2   24 1
    15    1   22 1
    16   22   28 1
    17    7   27 1
    18    2    7 2
    19    2    3 1
    20    6    7 1
    21    3    4 2
    22    5    6 2
    23    4    5 1
    24   26   28 2
    25    8   28 1
    26   25   28 2
    27    8    9 2
    28    8   14 1
    29    9   10 1
    30   13   14 2
    31   10   11 2
    32   11   13 1
    33    1   29 1
    34    1   30 1
    35    3   31 1
    36    4   32 1
    37    5   33 1
    38    6   34 1
    39    9   35 1
    40   10   36 1
    41   11   37 1
    42   12   38 1
    43   12   39 1
    44   13   40 1
    45   14   41 1
    46   15   42 1
    47   15   43 1
    48   17   44 1
    49   17   45 1
    50   18   46 1
    51   18   47 1
    52   19   48 1
    53   19   49 1
    54   20   50 1
    55   20   51 1
@<TRIPOS>SUBSTRUCTURE
     1 NV81        1 RESIDUE           4 A     NV8     0 ROOT
