# created with PyMOL 2.3.5
@<TRIPOS>MOLECULE
DLH
42 45 1 0 0
SMALL
USER_CHARGES


@<TRIPOS>ATOM
      1 C10        -0.7980   -0.1300   -1.5100 C.3       1 DLH1        0.0000
      2 C11        -1.1050   -0.7560    0.9220 C.3       1 DLH1        0.0000
      3 C15         6.0840    0.0560    0.1760 C.2       1 DLH1        0.0000
      4 C17         4.2140   -1.1150   -0.7550 C.2       1 DLH1        0.0000
      5 C18         4.0130    1.2030   -0.1890 C.2       1 DLH1        0.0000
      6 C19         5.5270   -1.1070   -0.3250 C.2       1 DLH1        0.0000
      7 C20         5.3250    1.2110    0.2460 C.2       1 DLH1        0.0000
      8 C21        -6.2720    1.1680    0.6400 C.2       1 DLH1        0.0000
      9 C22        -5.8120   -1.4920    0.0150 C.2       1 DLH1        0.0000
     10 C23        -7.0320   -1.1020    0.5350 C.2       1 DLH1        0.0000
     11 C24        -7.2620    0.2250    0.8470 C.2       1 DLH1        0.0000
     12 C1         -2.8730    0.5310   -0.2920 C.3       1 DLH1        0.0000
     13 C12         2.0240    0.0290   -1.1550 C.3       1 DLH1        0.0000
     14 C14         3.4560    0.0390   -0.6850 C.2       1 DLH1        0.0000
     15 C3          1.1200   -0.3330   -0.0040 C.2       1 DLH1        0.0000
     16 C6         -4.8160   -0.5540   -0.1950 C.2       1 DLH1        0.0000
     17 C7         -5.0480    0.7840    0.1190 C.2       1 DLH1        0.0000
     18 C8         -1.8720    0.9540   -1.3600 C.3       1 DLH1        0.0000
     19 C9         -2.1750    0.3330    1.0570 C.3       1 DLH1        0.0000
     20 N2         -0.2120   -0.4040   -0.1910 N.pl3     1 DLH1        0.0000
     21 O13         1.5930   -0.5620    1.0890 O.2       1 DLH1        0.0000
     22 O4         -3.9230    1.5030   -0.1750 O.3       1 DLH1        0.0000
     23 O5         -3.5460   -0.6740   -0.6840 O.3       1 DLH1        0.0000
     24 CL          7.7310    0.0650    0.7230 Cl        1 DLH1        0.0000
     25 H1         -1.2500   -1.0400   -1.9050 H         1 DLH1        0.0000
     26 H2         -0.0210    0.2170   -2.1900 H         1 DLH1        0.0000
     27 H3         -0.5300   -0.8210    1.8460 H         1 DLH1        0.0000
     28 H4         -1.5810   -1.7160    0.7190 H         1 DLH1        0.0000
     29 H5          3.7780   -2.0240   -1.1430 H         1 DLH1        0.0000
     30 H6          3.4210    2.1040   -0.1340 H         1 DLH1        0.0000
     31 H7          6.1190   -2.0090   -0.3810 H         1 DLH1        0.0000
     32 H8          5.7570    2.1180    0.6410 H         1 DLH1        0.0000
     33 H9         -6.4540    2.2040    0.8840 H         1 DLH1        0.0000
     34 H10        -5.6360   -2.5300   -0.2280 H         1 DLH1        0.0000
     35 H11        -7.8080   -1.8360    0.6990 H         1 DLH1        0.0000
     36 H12        -8.2160    0.5250    1.2540 H         1 DLH1        0.0000
     37 H13         1.7580    1.0180   -1.5280 H         1 DLH1        0.0000
     38 H14         1.9080   -0.7040   -1.9530 H         1 DLH1        0.0000
     39 H15        -1.4020    1.8930   -1.0670 H         1 DLH1        0.0000
     40 H16        -2.3890    1.0870   -2.3110 H         1 DLH1        0.0000
     41 H17        -2.9090    0.0330    1.8050 H         1 DLH1        0.0000
     42 H18        -1.7040    1.2660    1.3630 H         1 DLH1        0.0000
@<TRIPOS>BOND
     1   16   23 1
     2   12   23 1
     3   12   19 1
     4    2   19 1
     5    9   16 2
     6    9   10 1
     7   16   17 1
     8   15   21 2
     9   12   18 1
    10   12   22 1
    11    1   18 1
    12   13   15 1
    13   13   14 1
    14   15   20 1
    15    2   20 1
    16   10   11 2
    17    1   20 1
    18    4   14 2
    19    4    6 1
    20    5   14 1
    21   17   22 1
    22    8   17 2
    23    3    6 2
    24    8   11 1
    25    5    7 2
    26    3    7 1
    27    3   24 1
    28    1   25 1
    29    1   26 1
    30    2   27 1
    31    2   28 1
    32    4   29 1
    33    5   30 1
    34    6   31 1
    35    7   32 1
    36    8   33 1
    37    9   34 1
    38   10   35 1
    39   11   36 1
    40   13   37 1
    41   13   38 1
    42   18   39 1
    43   18   40 1
    44   19   41 1
    45   19   42 1
@<TRIPOS>SUBSTRUCTURE
     1 DLH1        1 RESIDUE           4 A     DLH     0 ROOT
