@<TRIPOS>MOLECULE
APE
71 74 1 0 0
SMALL
NO_CHARGES


@<TRIPOS>ATOM
      1 C0        179.5760  -10.3520   60.7080 C.3       1 APE0        0.0000
      2 C1        179.4510  -11.8370   61.0240 C.3       1 APE0        0.0000
      3 C2        180.2770  -12.7360   60.0830 C.3       1 APE0        0.0000
      4 C3        180.0650  -14.2440   60.3400 C.3       1 APE0        0.0000
      5 C4        178.6750  -14.7220   59.9430 C.3       1 APE0        0.0000
      6 N0        181.7050  -12.4080   60.0180 N.ar      1 APE0        0.0000
      7 C5        182.6660  -12.5030   61.0120 C.ar      1 APE0        0.0000
      8 C6        182.4280  -12.7970   62.4660 C.3       1 APE0        0.0000
      9 C7        182.2070  -11.5550   63.2910 C.ar      1 APE0        0.0000
     10 C8        182.6770  -10.2690   63.0860 C.ar      1 APE0        0.0000
     11 C9        182.2070   -9.3540   64.0700 C.ar      1 APE0        0.0000
     12 C10       181.4350   -9.9760   65.0250 C.ar      1 APE0        0.0000
     13 S0        181.2730  -11.6510   64.7300 S.2       1 APE0        0.0000
     14 N1        183.8690  -12.2770   60.5150 N.ar      1 APE0        0.0000
     15 C11       183.6870  -11.9020   59.2180 C.ar      1 APE0        0.0000
     16 C12       182.3420  -11.9560   58.8700 C.ar      1 APE0        0.0000
     17 C13       181.8890  -11.6120   57.5860 C.ar      1 APE0        0.0000
     18 C14       182.8570  -11.2590   56.6390 C.ar      1 APE0        0.0000
     19 C15       184.2150  -11.2470   56.9770 C.ar      1 APE0        0.0000
     20 C16       185.2420  -11.0150   55.9430 C.2       1 APE0        0.0000
     21 N2        185.1250  -11.8310   54.8420 N.am      1 APE0        0.0000
     22 C17       186.0820  -11.7840   53.7410 C.3       1 APE0        0.0000
     23 C18       186.1190  -13.1160   52.9860 C.3       1 APE0        0.0000
     24 C19       186.5290  -14.3310   53.8460 C.3       1 APE0        0.0000
     25 C20       187.8730  -14.1580   54.5500 C.3       1 APE0        0.0000
     26 C21       186.5520  -15.5940   52.9840 C.3       1 APE0        0.0000
     27 C22       185.6270  -10.6110   52.8430 C.2       1 APE0        0.0000
     28 N3        185.9350   -9.3770   53.3730 N.am      1 APE0        0.0000
     29 C23       185.5740   -8.1320   52.7420 C.3       1 APE0        0.0000
     30 C24       186.5760   -7.6930   51.7280 C.ar      1 APE0        0.0000
     31 N4        187.4590   -8.4880   51.1030 N.ar      1 APE0        0.0000
     32 N5        188.0310   -7.6070   50.2670 N.ar      1 APE0        0.0000
     33 N6        187.5640   -6.3420   50.3520 N.ar      1 APE0        0.0000
     34 N7        186.6350   -6.3900   51.2970 N.ar      1 APE0        0.0000
     35 O0        184.9550  -10.7440   51.8190 O.2       1 APE0        0.0000
     36 O1        186.1290  -10.1840   56.0890 O.2       1 APE0        0.0000
     37 C25       184.6510  -11.5350   58.2730 C.ar      1 APE0        0.0000
     38 H0        178.9210   -9.7730   61.3680 H         1 APE0        0.0000
     39 H1        179.2790  -10.1480   59.6730 H         1 APE0        0.0000
     40 H2        180.5980   -9.9910   60.8500 H         1 APE0        0.0000
     41 H3        178.3900  -12.1000   60.9380 H         1 APE0        0.0000
     42 H4        179.7180  -12.0130   62.0680 H         1 APE0        0.0000
     43 H5        179.8870  -12.5480   59.0750 H         1 APE0        0.0000
     44 H6        180.8010  -14.8260   59.7710 H         1 APE0        0.0000
     45 H7        180.2180  -14.4880   61.3960 H         1 APE0        0.0000
     46 H8        178.4680  -14.5090   58.8900 H         1 APE0        0.0000
     47 H9        177.8990  -14.2490   60.5510 H         1 APE0        0.0000
     48 H10       178.5960  -15.8020   60.0930 H         1 APE0        0.0000
     49 H11       183.3140  -13.3120   62.8600 H         1 APE0        0.0000
     50 H12       181.5970  -13.4940   62.5920 H         1 APE0        0.0000
     51 H13       183.3130   -9.9920   62.2520 H         1 APE0        0.0000
     52 H14       182.4370   -8.2950   64.0830 H         1 APE0        0.0000
     53 H15       180.9650   -9.5280   65.8900 H         1 APE0        0.0000
     54 H16       180.8380  -11.6220   57.3160 H         1 APE0        0.0000
     55 H17       182.5360  -10.9910   55.6320 H         1 APE0        0.0000
     56 H18       184.3580  -12.4890   54.7870 H         1 APE0        0.0000
     57 H19       187.0760  -11.5390   54.1320 H         1 APE0        0.0000
     58 H20       185.1300  -13.3180   52.5510 H         1 APE0        0.0000
     59 H21       186.8040  -13.0210   52.1370 H         1 APE0        0.0000
     60 H22       185.7730  -14.4780   54.6240 H         1 APE0        0.0000
     61 H23       188.6640  -13.9120   53.8380 H         1 APE0        0.0000
     62 H24       188.1620  -15.0780   55.0700 H         1 APE0        0.0000
     63 H25       187.8310  -13.3630   55.3010 H         1 APE0        0.0000
     64 H26       187.2990  -15.5220   52.1890 H         1 APE0        0.0000
     65 H27       185.5770  -15.7580   52.5170 H         1 APE0        0.0000
     66 H28       186.7870  -16.4770   53.5880 H         1 APE0        0.0000
     67 H29       186.4210   -9.3550   54.2710 H         1 APE0        0.0000
     68 H30       184.5930   -8.2360   52.2660 H         1 APE0        0.0000
     69 H31       185.4940   -7.3790   53.5330 H         1 APE0        0.0000
     70 H32       188.7630   -7.8770   49.6110 H         1 APE0        0.0000
     71 H33       185.7030  -11.5180   58.5380 H         1 APE0        0.0000
@<TRIPOS>BOND
     1    1    2 1
     2    1   38 1
     3    1   39 1
     4    1   40 1
     5    2    3 1
     6    2   41 1
     7    2   42 1
     8    3    4 1
     9    3    6 1
    10    3   43 1
    11    4    5 1
    12    4   44 1
    13    4   45 1
    14    5   46 1
    15    5   47 1
    16    5   48 1
    17    6    7 ar
    18    6   16 ar
    19    7    8 1
    20    7   14 ar
    21    8    9 1
    22    8   49 1
    23    8   50 1
    24    9   10 ar
    25    9   13 ar
    26   10   11 ar
    27   10   51 1
    28   11   12 ar
    29   11   52 1
    30   12   13 ar
    31   12   53 1
    32   14   15 ar
    33   15   16 ar
    34   15   37 ar
    35   16   17 ar
    36   17   18 ar
    37   17   54 1
    38   18   19 ar
    39   18   55 1
    40   19   20 1
    41   19   37 ar
    42   20   21 am
    43   20   36 2
    44   21   22 1
    45   21   56 1
    46   22   23 1
    47   22   27 1
    48   22   57 1
    49   23   24 1
    50   23   58 1
    51   23   59 1
    52   24   25 1
    53   24   26 1
    54   24   60 1
    55   25   61 1
    56   25   62 1
    57   25   63 1
    58   26   64 1
    59   26   65 1
    60   26   66 1
    61   27   28 am
    62   27   35 2
    63   28   29 1
    64   28   67 1
    65   29   30 1
    66   29   68 1
    67   29   69 1
    68   30   31 ar
    69   30   34 ar
    70   31   32 ar
    71   32   33 ar
    72   32   70 1
    73   33   34 ar
    74   37   71 1
@<TRIPOS>SUBSTRUCTURE
     1 APE0        1 RESIDUE           4 L     APE     0 ROOT
