@<TRIPOS>MOLECULE
APE
71 74 1 0 0
SMALL
NO_CHARGES


@<TRIPOS>ATOM
      1 C0        189.2690   -9.9920   50.6640 C.3       1 APE0        0.0000
      2 C1        189.2100   -8.9310   49.5760 C.3       1 APE0        0.0000
      3 C2        188.1120   -7.8700   49.7800 C.3       1 APE0        0.0000
      4 C3        188.0710   -6.8560   48.6130 C.3       1 APE0        0.0000
      5 C4        187.5310   -7.4460   47.3190 C.3       1 APE0        0.0000
      6 N0        188.1310   -7.2210   51.1000 N.ar      1 APE0        0.0000
      7 C5        188.8710   -6.1270   51.5320 C.ar      1 APE0        0.0000
      8 C6        189.9970   -5.4370   50.8110 C.3       1 APE0        0.0000
      9 C7        191.2540   -6.2500   50.7070 C.ar      1 APE0        0.0000
     10 C8        191.7640   -7.2030   51.5710 C.ar      1 APE0        0.0000
     11 C9        192.9730   -7.7820   51.0870 C.ar      1 APE0        0.0000
     12 C10       193.3810   -7.2130   49.9040 C.ar      1 APE0        0.0000
     13 S0        192.2990   -6.0070   49.3680 S.2       1 APE0        0.0000
     14 N1        188.4350   -5.7150   52.7130 N.ar      1 APE0        0.0000
     15 C11       187.5990   -6.6930   53.1700 C.ar      1 APE0        0.0000
     16 C12       187.3390   -7.6250   52.1750 C.ar      1 APE0        0.0000
     17 C13       186.4440   -8.6880   52.3860 C.ar      1 APE0        0.0000
     18 C14       185.8340   -8.7930   53.6530 C.ar      1 APE0        0.0000
     19 C15       186.1080   -7.8750   54.6730 C.ar      1 APE0        0.0000
     20 C16       185.4920   -7.9250   56.0340 C.2       1 APE0        0.0000
     21 N2        184.8820   -9.0900   56.4450 N.am      1 APE0        0.0000
     22 C17       184.2290   -9.1880   57.7510 C.3       1 APE0        0.0000
     23 C18       182.7040   -8.9990   57.6610 C.3       1 APE0        0.0000
     24 C19       182.2250   -7.5690   57.3460 C.3       1 APE0        0.0000
     25 C20       182.6030   -6.5610   58.4340 C.3       1 APE0        0.0000
     26 C21       180.7030   -7.5740   57.1810 C.3       1 APE0        0.0000
     27 C22       184.5180  -10.5780   58.3630 C.2       1 APE0        0.0000
     28 N3        184.4000  -10.6140   59.7320 N.am      1 APE0        0.0000
     29 C23       184.5980  -11.8110   60.5320 C.3       1 APE0        0.0000
     30 C24       183.7350  -11.7570   61.7450 C.ar      1 APE0        0.0000
     31 N4        183.2430  -10.6200   62.2760 N.ar      1 APE0        0.0000
     32 N5        182.5320  -11.1420   63.2950 N.ar      1 APE0        0.0000
     33 N6        182.5760  -12.4740   63.4180 N.ar      1 APE0        0.0000
     34 N7        183.3510  -12.8830   62.4240 N.ar      1 APE0        0.0000
     35 O0        184.7720  -11.5700   57.6780 O.2       1 APE0        0.0000
     36 O1        185.5610   -6.9260   56.7470 O.2       1 APE0        0.0000
     37 C25       186.9860   -6.8060   54.4220 C.ar      1 APE0        0.0000
     38 H0        190.0020  -10.7620   50.4060 H         1 APE0        0.0000
     39 H1        188.2980  -10.4810   50.7750 H         1 APE0        0.0000
     40 H2        189.5640   -9.5690   51.6280 H         1 APE0        0.0000
     41 H3        189.0310   -9.4490   48.6260 H         1 APE0        0.0000
     42 H4        190.1910   -8.4620   49.4800 H         1 APE0        0.0000
     43 H5        187.1500   -8.3970   49.7480 H         1 APE0        0.0000
     44 H6        187.4440   -5.9980   48.8840 H         1 APE0        0.0000
     45 H7        189.0740   -6.4760   48.4000 H         1 APE0        0.0000
     46 H8        186.5280   -7.8530   47.4690 H         1 APE0        0.0000
     47 H9        188.1810   -8.2370   46.9360 H         1 APE0        0.0000
     48 H10       187.4740   -6.6710   46.5480 H         1 APE0        0.0000
     49 H11       190.2470   -4.5360   51.3870 H         1 APE0        0.0000
     50 H12       189.6570   -5.0650   49.8410 H         1 APE0        0.0000
     51 H13       191.2760   -7.5020   52.4930 H         1 APE0        0.0000
     52 H14       193.5180   -8.5780   51.5800 H         1 APE0        0.0000
     53 H15       194.2630   -7.4540   49.3250 H         1 APE0        0.0000
     54 H16       186.2340   -9.4230   51.6160 H         1 APE0        0.0000
     55 H17       185.1310   -9.6070   53.8130 H         1 APE0        0.0000
     56 H18       184.8820   -9.9270   55.8770 H         1 APE0        0.0000
     57 H19       184.6700   -8.4450   58.4250 H         1 APE0        0.0000
     58 H20       182.3120   -9.6830   56.8960 H         1 APE0        0.0000
     59 H21       182.2420   -9.3150   58.6060 H         1 APE0        0.0000
     60 H22       182.6620   -7.2380   56.3970 H         1 APE0        0.0000
     61 H23       182.2350   -6.8790   59.4150 H         1 APE0        0.0000
     62 H24       182.1780   -5.5740   58.2180 H         1 APE0        0.0000
     63 H25       183.6850   -6.4310   58.5030 H         1 APE0        0.0000
     64 H26       180.2030   -7.9140   58.0950 H         1 APE0        0.0000
     65 H27       180.4010   -8.2360   56.3630 H         1 APE0        0.0000
     66 H28       180.3410   -6.5670   56.9560 H         1 APE0        0.0000
     67 H29       184.1570   -9.7760   60.2510 H         1 APE0        0.0000
     68 H30       184.3690  -12.6990   59.9420 H         1 APE0        0.0000
     69 H31       185.6540  -11.8430   60.8210 H         1 APE0        0.0000
     70 H32       181.9930  -10.5660   63.9360 H         1 APE0        0.0000
     71 H33       187.2070   -6.0700   55.1880 H         1 APE0        0.0000
@<TRIPOS>BOND
     1    1    2 1
     2    1   38 1
     3    1   39 1
     4    1   40 1
     5    2    3 1
     6    2   41 1
     7    2   42 1
     8    3    4 1
     9    3    6 1
    10    3   43 1
    11    4    5 1
    12    4   44 1
    13    4   45 1
    14    5   46 1
    15    5   47 1
    16    5   48 1
    17    6    7 ar
    18    6   16 ar
    19    7    8 1
    20    7   14 ar
    21    8    9 1
    22    8   49 1
    23    8   50 1
    24    9   10 ar
    25    9   13 ar
    26   10   11 ar
    27   10   51 1
    28   11   12 ar
    29   11   52 1
    30   12   13 ar
    31   12   53 1
    32   14   15 ar
    33   15   16 ar
    34   15   37 ar
    35   16   17 ar
    36   17   18 ar
    37   17   54 1
    38   18   19 ar
    39   18   55 1
    40   19   20 1
    41   19   37 ar
    42   20   21 am
    43   20   36 2
    44   21   22 1
    45   21   56 1
    46   22   23 1
    47   22   27 1
    48   22   57 1
    49   23   24 1
    50   23   58 1
    51   23   59 1
    52   24   25 1
    53   24   26 1
    54   24   60 1
    55   25   61 1
    56   25   62 1
    57   25   63 1
    58   26   64 1
    59   26   65 1
    60   26   66 1
    61   27   28 am
    62   27   35 2
    63   28   29 1
    64   28   67 1
    65   29   30 1
    66   29   68 1
    67   29   69 1
    68   30   31 ar
    69   30   34 ar
    70   31   32 ar
    71   32   33 ar
    72   32   70 1
    73   33   34 ar
    74   37   71 1
@<TRIPOS>SUBSTRUCTURE
     1 APE0        1 RESIDUE           4 L     APE     0 ROOT
