@<TRIPOS>MOLECULE
APE
71 74 1 0 0
SMALL
NO_CHARGES


@<TRIPOS>ATOM
      1 C0        191.0000   -6.2120   51.1450 C.3       1 APE0        0.0000
      2 C1        192.2650   -6.3780   51.9780 C.3       1 APE0        0.0000
      3 C2        192.0140   -6.6890   53.4660 C.3       1 APE0        0.0000
      4 C3        193.2470   -6.6530   54.3940 C.3       1 APE0        0.0000
      5 C4        194.6120   -6.6320   53.7360 C.3       1 APE0        0.0000
      6 N0        191.1630   -7.8540   53.7270 N.ar      1 APE0        0.0000
      7 C5        191.4950   -9.2000   53.7320 C.ar      1 APE0        0.0000
      8 C6        192.7910   -9.8090   53.2820 C.3       1 APE0        0.0000
      9 C7        192.9710   -9.7460   51.7940 C.ar      1 APE0        0.0000
     10 C8        192.0030   -9.6960   50.8080 C.ar      1 APE0        0.0000
     11 C9        192.5560   -9.4840   49.5210 C.ar      1 APE0        0.0000
     12 C10       193.9300   -9.5110   49.5420 C.ar      1 APE0        0.0000
     13 S0        194.5470   -9.7200   51.1200 S.2       1 APE0        0.0000
     14 N1        190.4750   -9.9270   54.1470 N.ar      1 APE0        0.0000
     15 C11       189.4370   -9.0610   54.3060 C.ar      1 APE0        0.0000
     16 C12       189.8160   -7.7540   54.0420 C.ar      1 APE0        0.0000
     17 C13       188.9090   -6.6810   54.1080 C.ar      1 APE0        0.0000
     18 C14       187.5750   -6.9840   54.4010 C.ar      1 APE0        0.0000
     19 C15       187.1870   -8.3000   54.6640 C.ar      1 APE0        0.0000
     20 C16       185.7550   -8.6220   54.8570 C.2       1 APE0        0.0000
     21 N2        185.5250   -9.6000   55.7830 N.am      1 APE0        0.0000
     22 C17       184.2740  -10.3260   55.9400 C.3       1 APE0        0.0000
     23 C18       184.5630  -11.8360   55.8700 C.3       1 APE0        0.0000
     24 C19       184.6060  -12.4830   54.4630 C.3       1 APE0        0.0000
     25 C20       185.4670  -13.7520   54.5090 C.3       1 APE0        0.0000
     26 C21       185.1090  -11.5990   53.3260 C.3       1 APE0        0.0000
     27 C22       183.7030   -9.9610   57.3260 C.2       1 APE0        0.0000
     28 N3        182.3560  -10.2030   57.4700 N.am      1 APE0        0.0000
     29 C23       181.6770   -9.9580   58.7290 C.3       1 APE0        0.0000
     30 C24       181.8520  -11.0910   59.6840 C.ar      1 APE0        0.0000
     31 N4        181.9670  -12.3900   59.3380 N.ar      1 APE0        0.0000
     32 N5        182.1030  -12.9330   60.5710 N.ar      1 APE0        0.0000
     33 N6        182.0090  -12.0830   61.5980 N.ar      1 APE0        0.0000
     34 N7        181.8510  -10.8920   61.0400 N.ar      1 APE0        0.0000
     35 O0        184.4040   -9.5380   58.2440 O.2       1 APE0        0.0000
     36 O1        184.9040   -8.0690   54.1730 O.2       1 APE0        0.0000
     37 C25       188.1150   -9.3500   54.6430 C.ar      1 APE0        0.0000
     38 H0        191.2640   -5.9540   50.1140 H         1 APE0        0.0000
     39 H1        190.3740   -5.4050   51.5390 H         1 APE0        0.0000
     40 H2        190.4060   -7.1290   51.1140 H         1 APE0        0.0000
     41 H3        192.8190   -5.4400   51.8950 H         1 APE0        0.0000
     42 H4        192.9020   -7.1310   51.5190 H         1 APE0        0.0000
     43 H5        191.4070   -5.8530   53.8270 H         1 APE0        0.0000
     44 H6        193.1770   -5.7670   55.0360 H         1 APE0        0.0000
     45 H7        193.2120   -7.4900   55.0910 H         1 APE0        0.0000
     46 H8        194.7440   -5.7890   53.0570 H         1 APE0        0.0000
     47 H9        194.8030   -7.5490   53.1820 H         1 APE0        0.0000
     48 H10       195.3760   -6.5460   54.5110 H         1 APE0        0.0000
     49 H11       192.7980  -10.8670   53.5760 H         1 APE0        0.0000
     50 H12       193.6290   -9.3460   53.8060 H         1 APE0        0.0000
     51 H13       190.9400   -9.7450   51.0070 H         1 APE0        0.0000
     52 H14       191.9780   -9.3760   48.6130 H         1 APE0        0.0000
     53 H15       194.5920   -9.4590   48.6890 H         1 APE0        0.0000
     54 H16       189.2050   -5.6570   53.9070 H         1 APE0        0.0000
     55 H17       186.8320   -6.1900   54.4180 H         1 APE0        0.0000
     56 H18       186.2580   -9.8340   56.4440 H         1 APE0        0.0000
     57 H19       183.5510  -10.0160   55.1780 H         1 APE0        0.0000
     58 H20       185.5110  -12.0370   56.3880 H         1 APE0        0.0000
     59 H21       183.8070  -12.3810   56.4510 H         1 APE0        0.0000
     60 H22       183.5790  -12.7760   54.2090 H         1 APE0        0.0000
     61 H23       186.5290  -13.5030   54.6120 H         1 APE0        0.0000
     62 H24       185.3470  -14.3370   53.5900 H         1 APE0        0.0000
     63 H25       185.1980  -14.3880   55.3550 H         1 APE0        0.0000
     64 H26       186.1360  -11.2680   53.4970 H         1 APE0        0.0000
     65 H27       184.4710  -10.7240   53.1850 H         1 APE0        0.0000
     66 H28       185.1050  -12.1540   52.3820 H         1 APE0        0.0000
     67 H29       181.8150  -10.5610   56.6950 H         1 APE0        0.0000
     68 H30       182.0580   -9.0300   59.1680 H         1 APE0        0.0000
     69 H31       180.6130   -9.8250   58.5070 H         1 APE0        0.0000
     70 H32       182.2670  -13.9290   60.7110 H         1 APE0        0.0000
     71 H33       187.8350  -10.3830   54.8110 H         1 APE0        0.0000
@<TRIPOS>BOND
     1    1    2 1
     2    1   38 1
     3    1   39 1
     4    1   40 1
     5    2    3 1
     6    2   41 1
     7    2   42 1
     8    3    4 1
     9    3    6 1
    10    3   43 1
    11    4    5 1
    12    4   44 1
    13    4   45 1
    14    5   46 1
    15    5   47 1
    16    5   48 1
    17    6    7 ar
    18    6   16 ar
    19    7    8 1
    20    7   14 ar
    21    8    9 1
    22    8   49 1
    23    8   50 1
    24    9   10 ar
    25    9   13 ar
    26   10   11 ar
    27   10   51 1
    28   11   12 ar
    29   11   52 1
    30   12   13 ar
    31   12   53 1
    32   14   15 ar
    33   15   16 ar
    34   15   37 ar
    35   16   17 ar
    36   17   18 ar
    37   17   54 1
    38   18   19 ar
    39   18   55 1
    40   19   20 1
    41   19   37 ar
    42   20   21 am
    43   20   36 2
    44   21   22 1
    45   21   56 1
    46   22   23 1
    47   22   27 1
    48   22   57 1
    49   23   24 1
    50   23   58 1
    51   23   59 1
    52   24   25 1
    53   24   26 1
    54   24   60 1
    55   25   61 1
    56   25   62 1
    57   25   63 1
    58   26   64 1
    59   26   65 1
    60   26   66 1
    61   27   28 am
    62   27   35 2
    63   28   29 1
    64   28   67 1
    65   29   30 1
    66   29   68 1
    67   29   69 1
    68   30   31 ar
    69   30   34 ar
    70   31   32 ar
    71   32   33 ar
    72   32   70 1
    73   33   34 ar
    74   37   71 1
@<TRIPOS>SUBSTRUCTURE
     1 APE0        1 RESIDUE           4 L     APE     0 ROOT
