@<TRIPOS>MOLECULE
APE
71 74 1 0 0
SMALL
NO_CHARGES


@<TRIPOS>ATOM
      1 C0        181.5660   -7.2940   59.3760 C.3       1 APE0        0.0000
      2 C1        180.6230   -8.4680   59.6120 C.3       1 APE0        0.0000
      3 C2        180.4850   -9.4010   58.3950 C.3       1 APE0        0.0000
      4 C3        179.4430  -10.5280   58.5660 C.3       1 APE0        0.0000
      5 C4        178.0500  -10.0310   58.9160 C.3       1 APE0        0.0000
      6 N0        181.7700   -9.9370   57.9250 N.ar      1 APE0        0.0000
      7 C5        182.5800  -10.8990   58.5130 C.ar      1 APE0        0.0000
      8 C6        182.4750  -11.4140   59.9230 C.3       1 APE0        0.0000
      9 C7        183.6620  -10.9830   60.7540 C.ar      1 APE0        0.0000
     10 C8        184.9730  -11.4190   60.6660 C.ar      1 APE0        0.0000
     11 C9        185.8320  -10.7640   61.5940 C.ar      1 APE0        0.0000
     12 C10       185.1500   -9.8560   62.3730 C.ar      1 APE0        0.0000
     13 S0        183.4840   -9.8100   61.9940 S.2       1 APE0        0.0000
     14 N1        183.5410  -11.2690   57.6780 N.ar      1 APE0        0.0000
     15 C11       183.5210  -10.3410   56.6750 C.ar      1 APE0        0.0000
     16 C12       182.4080   -9.5200   56.7680 C.ar      1 APE0        0.0000
     17 C13       182.1600   -8.4960   55.8430 C.ar      1 APE0        0.0000
     18 C14       183.1350   -8.2610   54.8640 C.ar      1 APE0        0.0000
     19 C15       184.2970   -9.0370   54.7950 C.ar      1 APE0        0.0000
     20 C16       185.4010   -8.6070   53.8870 C.2       1 APE0        0.0000
     21 N2        186.3430   -9.5650   53.5880 N.am      1 APE0        0.0000
     22 C17       187.6390   -9.2190   53.0280 C.3       1 APE0        0.0000
     23 C18       188.7320  -10.2070   53.4820 C.3       1 APE0        0.0000
     24 C19       189.3640   -9.8980   54.8570 C.3       1 APE0        0.0000
     25 C20       190.5160  -10.8750   55.1230 C.3       1 APE0        0.0000
     26 C21       188.3700   -9.9590   56.0140 C.3       1 APE0        0.0000
     27 C22       187.5760   -9.1420   51.4810 C.2       1 APE0        0.0000
     28 N3        188.6650   -8.4820   50.9540 N.am      1 APE0        0.0000
     29 C23       188.9080   -8.3160   49.5320 C.3       1 APE0        0.0000
     30 C24       190.3660   -8.0920   49.3250 C.ar      1 APE0        0.0000
     31 N4        191.3070   -8.9940   49.6500 N.ar      1 APE0        0.0000
     32 N5        192.4080   -8.3530   49.2210 N.ar      1 APE0        0.0000
     33 N6        192.2080   -7.0870   48.8170 N.ar      1 APE0        0.0000
     34 N7        190.8940   -6.9110   48.8760 N.ar      1 APE0        0.0000
     35 O0        186.6740   -9.6340   50.8040 O.2       1 APE0        0.0000
     36 O1        185.4800   -7.4460   53.4900 O.2       1 APE0        0.0000
     37 C25       184.4770  -10.1160   55.6760 C.ar      1 APE0        0.0000
     38 H0        181.5380   -6.6140   60.2330 H         1 APE0        0.0000
     39 H1        181.2710   -6.7240   58.4890 H         1 APE0        0.0000
     40 H2        182.6010   -7.6270   59.2480 H         1 APE0        0.0000
     41 H3        179.6440   -8.0480   59.8570 H         1 APE0        0.0000
     42 H4        180.9430   -9.0170   60.5000 H         1 APE0        0.0000
     43 H5        180.1040   -8.7810   57.5740 H         1 APE0        0.0000
     44 H6        179.3810  -11.0970   57.6290 H         1 APE0        0.0000
     45 H7        179.7470  -11.2450   59.3340 H         1 APE0        0.0000
     46 H8        177.6970   -9.2940   58.1880 H         1 APE0        0.0000
     47 H9        178.0200   -9.5830   59.9120 H         1 APE0        0.0000
     48 H10       177.3520  -10.8730   58.9210 H         1 APE0        0.0000
     49 H11       182.4540  -12.5100   59.8880 H         1 APE0        0.0000
     50 H12       181.5480  -11.1150   60.4130 H         1 APE0        0.0000
     51 H13       185.3000  -12.1630   59.9480 H         1 APE0        0.0000
     52 H14       186.8960  -10.9470   61.6820 H         1 APE0        0.0000
     53 H15       185.5470   -9.2180   63.1500 H         1 APE0        0.0000
     54 H16       181.2830   -7.8570   55.9020 H         1 APE0        0.0000
     55 H17       182.9770   -7.4410   54.1650 H         1 APE0        0.0000
     56 H18       186.1490  -10.5440   53.7530 H         1 APE0        0.0000
     57 H19       187.8970   -8.2100   53.3770 H         1 APE0        0.0000
     58 H20       188.3390  -11.2330   53.4710 H         1 APE0        0.0000
     59 H21       189.5500  -10.1870   52.7550 H         1 APE0        0.0000
     60 H22       189.7880   -8.8860   54.8250 H         1 APE0        0.0000
     61 H23       190.1620  -11.9130   55.1490 H         1 APE0        0.0000
     62 H24       190.9980  -10.6570   56.0840 H         1 APE0        0.0000
     63 H25       191.2810  -10.7970   54.3420 H         1 APE0        0.0000
     64 H26       187.8480  -10.9210   56.0390 H         1 APE0        0.0000
     65 H27       187.6290   -9.1580   55.9400 H         1 APE0        0.0000
     66 H28       188.8820   -9.8290   56.9740 H         1 APE0        0.0000
     67 H29       189.3630   -8.0950   51.5790 H         1 APE0        0.0000
     68 H30       188.5630   -9.2010   48.9890 H         1 APE0        0.0000
     69 H31       188.3270   -7.4520   49.1940 H         1 APE0        0.0000
     70 H32       193.3250   -8.7980   49.1970 H         1 APE0        0.0000
     71 H33       185.3690  -10.7260   55.6930 H         1 APE0        0.0000
@<TRIPOS>BOND
     1    1    2 1
     2    1   38 1
     3    1   39 1
     4    1   40 1
     5    2    3 1
     6    2   41 1
     7    2   42 1
     8    3    4 1
     9    3    6 1
    10    3   43 1
    11    4    5 1
    12    4   44 1
    13    4   45 1
    14    5   46 1
    15    5   47 1
    16    5   48 1
    17    6    7 ar
    18    6   16 ar
    19    7    8 1
    20    7   14 ar
    21    8    9 1
    22    8   49 1
    23    8   50 1
    24    9   10 ar
    25    9   13 ar
    26   10   11 ar
    27   10   51 1
    28   11   12 ar
    29   11   52 1
    30   12   13 ar
    31   12   53 1
    32   14   15 ar
    33   15   16 ar
    34   15   37 ar
    35   16   17 ar
    36   17   18 ar
    37   17   54 1
    38   18   19 ar
    39   18   55 1
    40   19   20 1
    41   19   37 ar
    42   20   21 am
    43   20   36 2
    44   21   22 1
    45   21   56 1
    46   22   23 1
    47   22   27 1
    48   22   57 1
    49   23   24 1
    50   23   58 1
    51   23   59 1
    52   24   25 1
    53   24   26 1
    54   24   60 1
    55   25   61 1
    56   25   62 1
    57   25   63 1
    58   26   64 1
    59   26   65 1
    60   26   66 1
    61   27   28 am
    62   27   35 2
    63   28   29 1
    64   28   67 1
    65   29   30 1
    66   29   68 1
    67   29   69 1
    68   30   31 ar
    69   30   34 ar
    70   31   32 ar
    71   32   33 ar
    72   32   70 1
    73   33   34 ar
    74   37   71 1
@<TRIPOS>SUBSTRUCTURE
     1 APE0        1 RESIDUE           4 L     APE     0 ROOT
