@<TRIPOS>MOLECULE
APE
71 74 1 0 0
SMALL
NO_CHARGES


@<TRIPOS>ATOM
      1 C1        181.2000   -8.3850   62.1110 C.3       1 APE0        0.0000
      2 C2        181.2850   -9.8710   61.7860 C.3       1 APE0        0.0000
      3 C3        181.0700  -10.1590   60.2840 C.3       1 APE0        0.0000
      4 C4        179.6690  -10.6960   59.9190 C.3       1 APE0        0.0000
      5 C26       178.5510   -9.7030   60.1900 C.3       1 APE0        0.0000
      6 N1        182.1140  -11.0340   59.7220 N.ar      1 APE0        0.0000
      7 C5        182.4360  -12.3340   60.0860 C.ar      1 APE0        0.0000
      8 C6        181.9130  -13.0260   61.3160 C.3       1 APE0        0.0000
      9 C7        181.6070  -14.4840   61.1250 C.ar      1 APE0        0.0000
     10 C8        182.4850  -15.5500   61.1220 C.ar      1 APE0        0.0000
     11 C9        181.8240  -16.8000   60.9570 C.ar      1 APE0        0.0000
     12 C10       180.4590  -16.6510   60.8830 C.ar      1 APE0        0.0000
     13 S1        179.9850  -15.0110   60.9400 S.2       1 APE0        0.0000
     14 N2        183.3420  -12.8350   59.2580 N.ar      1 APE0        0.0000
     15 C11       183.6860  -11.8140   58.4080 C.ar      1 APE0        0.0000
     16 C12       182.9600  -10.6630   58.6900 C.ar      1 APE0        0.0000
     17 C13       183.1490   -9.4630   57.9880 C.ar      1 APE0        0.0000
     18 C14       184.1030   -9.4590   56.9660 C.ar      1 APE0        0.0000
     19 C15       184.8150  -10.6180   56.6490 C.ar      1 APE0        0.0000
     20 C16       185.7620  -10.5730   55.5130 C.2       1 APE0        0.0000
     21 N3        185.5740  -11.5600   54.5750 N.am      1 APE0        0.0000
     22 C17       186.4190  -11.6990   53.3890 C.3       1 APE0        0.0000
     23 C18       186.1810  -13.0600   52.7180 C.3       1 APE0        0.0000
     24 C19       187.0120  -14.2160   53.3150 C.3       1 APE0        0.0000
     25 C20       186.6880  -15.5100   52.5690 C.3       1 APE0        0.0000
     26 C21       186.8030  -14.4170   54.8140 C.3       1 APE0        0.0000
     27 C22       186.0230  -10.5480   52.4310 C.2       1 APE0        0.0000
     28 N4        186.7950   -9.4160   52.5650 N.am      1 APE0        0.0000
     29 C23       186.4570   -8.1630   51.9370 C.3       1 APE0        0.0000
     30 C24       186.8950   -8.0430   50.5160 C.ar      1 APE0        0.0000
     31 N5        187.1130   -9.0560   49.6600 N.ar      1 APE0        0.0000
     32 N6        187.3940   -8.3670   48.5340 N.ar      1 APE0        0.0000
     33 N7        187.3480   -7.0210   48.6630 N.ar      1 APE0        0.0000
     34 N8        187.0310   -6.8060   49.9300 N.ar      1 APE0        0.0000
     35 O1        185.0170  -10.5780   51.7170 O.2       1 APE0        0.0000
     36 O2        186.5910   -9.6760   55.4160 O.2       1 APE0        0.0000
     37 C25       184.6270  -11.8090   57.3670 C.ar      1 APE0        0.0000
     38 H1        181.3510   -8.2240   63.1830 H         1 APE0        0.0000
     39 H2        180.2260   -7.9670   61.8400 H         1 APE0        0.0000
     40 H3        181.9740   -7.8280   61.5740 H         1 APE0        0.0000
     41 H4        180.5470  -10.4070   62.3930 H         1 APE0        0.0000
     42 H5        182.2740  -10.2160   62.1120 H         1 APE0        0.0000
     43 H6        181.1760   -9.2070   59.7520 H         1 APE0        0.0000
     44 H7        179.6470  -10.9450   58.8500 H         1 APE0        0.0000
     45 H8        179.4510  -11.6260   60.4530 H         1 APE0        0.0000
     46 H9        178.7430   -8.7550   59.6790 H         1 APE0        0.0000
     47 H10       178.4390   -9.5090   61.2610 H         1 APE0        0.0000
     48 H11       177.5970  -10.0970   59.8230 H         1 APE0        0.0000
     49 H12       181.0270  -12.5290   61.7160 H         1 APE0        0.0000
     50 H13       182.6790  -12.9350   62.0980 H         1 APE0        0.0000
     51 H14       183.5590  -15.4420   61.2200 H         1 APE0        0.0000
     52 H15       182.3250  -17.7610   60.9020 H         1 APE0        0.0000
     53 H16       179.7180  -17.4310   60.7860 H         1 APE0        0.0000
     54 H17       182.5840   -8.5630   58.2130 H         1 APE0        0.0000
     55 H18       184.2690   -8.5470   56.3970 H         1 APE0        0.0000
     56 H19       184.8130  -12.2150   54.7040 H         1 APE0        0.0000
     57 H20       187.4680  -11.5810   53.6810 H         1 APE0        0.0000
     58 H21       185.1130  -13.3170   52.7550 H         1 APE0        0.0000
     59 H22       186.4280  -12.9830   51.6520 H         1 APE0        0.0000
     60 H23       188.0720  -13.9940   53.1630 H         1 APE0        0.0000
     61 H24       185.6360  -15.7770   52.6950 H         1 APE0        0.0000
     62 H25       187.2990  -16.3420   52.9350 H         1 APE0        0.0000
     63 H26       186.8750  -15.4040   51.4960 H         1 APE0        0.0000
     64 H27       185.7410  -14.5050   55.0530 H         1 APE0        0.0000
     65 H28       187.2170  -13.5820   55.3870 H         1 APE0        0.0000
     66 H29       187.3070  -15.3250   55.1620 H         1 APE0        0.0000
     67 H30       187.6040   -9.4550   53.1790 H         1 APE0        0.0000
     68 H31       185.3720   -8.0210   51.9920 H         1 APE0        0.0000
     69 H32       186.9270   -7.3720   52.5320 H         1 APE0        0.0000
     70 H33       187.6150   -8.8260   47.6450 H         1 APE0        0.0000
     71 H34       185.1990  -12.7040   57.1490 H         1 APE0        0.0000
@<TRIPOS>BOND
     1    1    2 1
     2    1   38 1
     3    1   39 1
     4    1   40 1
     5    2    3 1
     6    2   41 1
     7    2   42 1
     8    3    4 1
     9    3    6 1
    10    3   43 1
    11    4    5 1
    12    4   44 1
    13    4   45 1
    14    5   46 1
    15    5   47 1
    16    5   48 1
    17    6    7 ar
    18    6   16 ar
    19    7    8 1
    20    7   14 ar
    21    8    9 1
    22    8   49 1
    23    8   50 1
    24    9   10 ar
    25    9   13 ar
    26   10   11 ar
    27   10   51 1
    28   11   12 ar
    29   11   52 1
    30   12   13 ar
    31   12   53 1
    32   14   15 ar
    33   15   16 ar
    34   15   37 ar
    35   16   17 ar
    36   17   18 ar
    37   17   54 1
    38   18   19 ar
    39   18   55 1
    40   19   20 1
    41   19   37 ar
    42   20   21 am
    43   20   36 2
    44   21   22 1
    45   21   56 1
    46   22   23 1
    47   22   27 1
    48   22   57 1
    49   23   24 1
    50   23   58 1
    51   23   59 1
    52   24   25 1
    53   24   26 1
    54   24   60 1
    55   25   61 1
    56   25   62 1
    57   25   63 1
    58   26   64 1
    59   26   65 1
    60   26   66 1
    61   27   28 am
    62   27   35 2
    63   28   29 1
    64   28   67 1
    65   29   30 1
    66   29   68 1
    67   29   69 1
    68   30   31 ar
    69   30   34 ar
    70   31   32 ar
    71   32   33 ar
    72   32   70 1
    73   33   34 ar
    74   37   71 1
@<TRIPOS>SUBSTRUCTURE
     1 APE0        1 RESIDUE           4 A     APE     0 ROOT
