@<TRIPOS>MOLECULE
APE
71 74 1 0 0
SMALL
NO_CHARGES


@<TRIPOS>ATOM
      1 N0        188.6720   -7.1510   48.9110 N.ar      1 APE1        0.0000
      2 N1        187.9070   -9.0140   48.0710 N.ar      1 APE1        0.0000
      3 N2        184.1910  -10.6110   51.7880 N.am      1 APE1        0.0000
      4 N3        184.9620  -13.3150   52.2910 N.am      1 APE1        0.0000
      5 N4        187.1890  -16.1900   52.7770 N.ar      1 APE1        0.0000
      6 N5        188.0000  -16.2340   53.7780 N.ar      1 APE1        0.0000
      7 N6        187.7410  -15.2560   54.5740 N.ar      1 APE1        0.0000
      8 N7        186.7640  -14.5710   54.0850 N.ar      1 APE1        0.0000
      9 C0        191.6410   -6.0910   50.0790 C.3       1 APE1        0.0000
     10 C1        190.8780   -6.1070   48.7530 C.3       1 APE1        0.0000
     11 C2        189.3880   -5.8780   49.0180 C.3       1 APE1        0.0000
     12 C3        188.8340   -4.8910   47.9890 C.3       1 APE1        0.0000
     13 C4        188.0700   -3.7790   48.7090 C.3       1 APE1        0.0000
     14 C5        188.6360   -7.9660   47.8210 C.ar      1 APE1        0.0000
     15 C6        187.4240   -8.9410   49.3380 C.ar      1 APE1        0.0000
     16 C7        187.9150   -7.7470   49.8960 C.ar      1 APE1        0.0000
     17 C8        186.6100   -9.7750   50.1050 C.ar      1 APE1        0.0000
     18 C9        187.5850   -7.3970   51.2010 C.ar      1 APE1        0.0000
     19 C10       186.7840   -8.2130   51.9470 C.ar      1 APE1        0.0000
     20 C11       186.2870   -9.4070   51.4070 C.ar      1 APE1        0.0000
     21 C12       189.3390   -7.6940   46.5170 C.3       1 APE1        0.0000
     22 C13       188.3500   -7.7890   45.3830 C.ar      1 APE1        0.0000
     23 C14       187.0490   -7.5130   45.4730 C.ar      1 APE1        0.0000
     24 C15       186.3360   -7.6720   44.2980 C.ar      1 APE1        0.0000
     25 C16       187.0580   -8.0770   43.2530 C.ar      1 APE1        0.0000
     26 C17       185.4220  -10.2810   52.2260 C.2       1 APE1        0.0000
     27 C18       183.3340  -11.4780   52.6010 C.3       1 APE1        0.0000
     28 C19       181.8670  -11.2230   52.2460 C.3       1 APE1        0.0000
     29 C20       181.7360   -9.8530   51.5760 C.3       1 APE1        0.0000
     30 C21       180.3940   -9.7690   50.8470 C.3       1 APE1        0.0000
     31 C22       181.8090   -8.7560   52.6390 C.3       1 APE1        0.0000
     32 C23       183.6730  -12.9200   52.3250 C.2       1 APE1        0.0000
     33 C24       185.2910  -14.7160   52.0230 C.3       1 APE1        0.0000
     34 C25       186.3980  -15.1580   52.9450 C.ar      1 APE1        0.0000
     35 O0        185.8220  -10.7030   53.2930 O.2       1 APE1        0.0000
     36 O1        182.7870  -13.7250   52.1340 O.2       1 APE1        0.0000
     37 H0        192.5380   -5.4800   49.9740 H         1 APE1        0.0000
     38 H1        191.0060   -5.6720   50.8590 H         1 APE1        0.0000
     39 H2        191.9250   -7.1080   50.3480 H         1 APE1        0.0000
     40 H3        191.0160   -7.0730   48.2670 H         1 APE1        0.0000
     41 H4        191.2580   -5.3170   48.1050 H         1 APE1        0.0000
     42 H5        189.2550   -5.4710   50.0200 H         1 APE1        0.0000
     43 H6        188.1600   -5.4140   47.3100 H         1 APE1        0.0000
     44 H7        189.6570   -4.4580   47.4200 H         1 APE1        0.0000
     45 H8        187.0900   -4.1490   49.0100 H         1 APE1        0.0000
     46 H9        188.6270   -3.4680   49.5920 H         1 APE1        0.0000
     47 H10       187.9470   -2.9290   48.0380 H         1 APE1        0.0000
     48 H11       186.2300  -10.7070   49.6870 H         1 APE1        0.0000
     49 H12       187.9660   -6.4700   51.6290 H         1 APE1        0.0000
     50 H13       186.5290   -7.9340   52.9690 H         1 APE1        0.0000
     51 H14       190.1300   -8.4290   46.3710 H         1 APE1        0.0000
     52 H15       189.7730   -6.6940   46.5390 H         1 APE1        0.0000
     53 H16       186.5820   -7.1870   46.4020 H         1 APE1        0.0000
     54 H17       185.2650   -7.4810   44.2320 H         1 APE1        0.0000
     55 H18       186.6680   -8.2590   42.2520 H         1 APE1        0.0000
     56 H19       183.4960  -11.2620   53.6570 H         1 APE1        0.0000
     57 H20       181.2640  -11.2430   53.1540 H         1 APE1        0.0000
     58 H21       181.5180  -11.9970   51.5630 H         1 APE1        0.0000
     59 H22       182.5470   -9.7190   50.8600 H         1 APE1        0.0000
     60 H23       179.6810   -9.2210   51.4620 H         1 APE1        0.0000
     61 H24       180.5280   -9.2510   49.8970 H         1 APE1        0.0000
     62 H25       180.0160  -10.7750   50.6630 H         1 APE1        0.0000
     63 H26       182.2260   -7.8510   52.1980 H         1 APE1        0.0000
     64 H27       180.8080   -8.5480   53.0160 H         1 APE1        0.0000
     65 H28       182.4460   -9.0860   53.4600 H         1 APE1        0.0000
     66 H29       185.6170  -14.8210   50.9880 H         1 APE1        0.0000
     67 H30       184.4100  -15.3350   52.1900 H         1 APE1        0.0000
     68 S0        188.7370   -8.2730   43.7380 S.2       1 APE1        0.0000
     69 H31       183.8730  -10.2740   50.9360 H         1 APE1        0.0000
     70 H32       185.6700  -12.6710   52.4440 H         1 APE1        0.0000
     71 H33       188.6940  -16.8990   53.9100 H         1 APE1        0.0000
@<TRIPOS>BOND
     1    1   11 1
     2    1   14 ar
     3    1   16 ar
     4    2   14 ar
     5    2   15 ar
     6    3   26 am
     7    3   27 1
     8    3   69 1
     9    4   32 am
    10    4   33 1
    11    4   70 1
    12    5    6 ar
    13    5   34 ar
    14    6    7 ar
    15    6   71 1
    16    7    8 ar
    17    8   34 ar
    18    9   10 1
    19    9   37 1
    20    9   38 1
    21    9   39 1
    22   10   11 1
    23   10   40 1
    24   10   41 1
    25   11   12 1
    26   11   42 1
    27   12   13 1
    28   12   43 1
    29   12   44 1
    30   13   45 1
    31   13   46 1
    32   13   47 1
    33   14   21 1
    34   15   16 ar
    35   15   17 ar
    36   16   18 ar
    37   17   20 ar
    38   17   48 1
    39   18   19 ar
    40   18   49 1
    41   19   20 ar
    42   19   50 1
    43   20   26 1
    44   21   22 1
    45   21   51 1
    46   21   52 1
    47   22   23 ar
    48   22   68 ar
    49   23   24 ar
    50   23   53 1
    51   24   25 ar
    52   24   54 1
    53   25   55 1
    54   25   68 ar
    55   26   35 2
    56   27   28 1
    57   27   32 1
    58   27   56 1
    59   28   29 1
    60   28   57 1
    61   28   58 1
    62   29   30 1
    63   29   31 1
    64   29   59 1
    65   30   60 1
    66   30   61 1
    67   30   62 1
    68   31   63 1
    69   31   64 1
    70   31   65 1
    71   32   36 2
    72   33   34 1
    73   33   66 1
    74   33   67 1
@<TRIPOS>SUBSTRUCTURE
     1 APE1        1 RESIDUE           4 P     APE     0 ROOT
