@<TRIPOS>MOLECULE
APE
71 74 1 0 0
SMALL
NO_CHARGES


@<TRIPOS>ATOM
      1 N0        189.0320   -7.1360   48.5370 N.ar      1 APE1        0.0000
      2 N1        189.8650   -7.7910   50.4440 N.ar      1 APE1        0.0000
      3 N2        184.5020  -10.6680   51.4280 N.am      1 APE1        0.0000
      4 N3        185.2310  -13.4590   52.2870 N.am      1 APE1        0.0000
      5 N4        187.2190  -16.5120   52.8800 N.ar      1 APE1        0.0000
      6 N5        188.1750  -16.5040   53.7440 N.ar      1 APE1        0.0000
      7 N6        188.2490  -15.3360   54.2810 N.ar      1 APE1        0.0000
      8 N7        187.3420  -14.5820   53.7580 N.ar      1 APE1        0.0000
      9 C0        189.6080   -8.6240   46.1430 C.3       1 APE1        0.0000
     10 C1        188.5510   -7.5180   46.1690 C.3       1 APE1        0.0000
     11 C2        188.9230   -6.4810   47.2310 C.3       1 APE1        0.0000
     12 C3        187.8400   -5.4010   47.2910 C.3       1 APE1        0.0000
     13 C4        188.3210   -4.2450   48.1690 C.3       1 APE1        0.0000
     14 C5        190.1080   -7.1010   49.3680 C.ar      1 APE1        0.0000
     15 C6        188.6150   -8.3170   50.3740 C.ar      1 APE1        0.0000
     16 C7        188.0610   -7.8980   49.1500 C.ar      1 APE1        0.0000
     17 C8        187.8600   -9.1180   51.2310 C.ar      1 APE1        0.0000
     18 C9        186.7740   -8.2850   48.7960 C.ar      1 APE1        0.0000
     19 C10       186.0400   -9.0720   49.6350 C.ar      1 APE1        0.0000
     20 C11       186.5750   -9.4990   50.8590 C.ar      1 APE1        0.0000
     21 C12       191.3940   -6.3690   49.0860 C.3       1 APE1        0.0000
     22 C13       192.4550   -6.8230   50.0550 C.ar      1 APE1        0.0000
     23 C14       193.1510   -6.0230   50.8640 C.ar      1 APE1        0.0000
     24 C15       194.0740   -6.6670   51.6690 C.ar      1 APE1        0.0000
     25 C16       194.1290   -7.9900   51.5140 C.ar      1 APE1        0.0000
     26 C17       185.7700  -10.3500   51.7580 C.2       1 APE1        0.0000
     27 C18       183.7040  -11.5130   52.3190 C.3       1 APE1        0.0000
     28 C19       182.2160  -11.2430   52.0820 C.3       1 APE1        0.0000
     29 C20       182.0380   -9.8300   51.5220 C.3       1 APE1        0.0000
     30 C21       180.6870   -9.7310   50.8100 C.3       1 APE1        0.0000
     31 C22       182.0860   -8.8180   52.6670 C.3       1 APE1        0.0000
     32 C23       184.0030  -12.9630   52.0370 C.2       1 APE1        0.0000
     33 C24       185.5210  -14.8680   52.0120 C.3       1 APE1        0.0000
     34 C25       186.6750  -15.3200   52.8690 C.ar      1 APE1        0.0000
     35 O0        186.2510  -10.7640   52.7940 O.2       1 APE1        0.0000
     36 O1        183.1380  -13.6830   51.5870 O.2       1 APE1        0.0000
     37 H0        190.5030   -8.2820   46.6630 H         1 APE1        0.0000
     38 H1        189.2170   -9.5120   46.6390 H         1 APE1        0.0000
     39 H2        189.8580   -8.8640   45.1100 H         1 APE1        0.0000
     40 H3        187.5790   -7.9500   46.4080 H         1 APE1        0.0000
     41 H4        188.5030   -7.0370   45.1920 H         1 APE1        0.0000
     42 H5        189.8780   -6.0240   46.9730 H         1 APE1        0.0000
     43 H6        186.9290   -5.8240   47.7140 H         1 APE1        0.0000
     44 H7        187.6360   -5.0340   46.2850 H         1 APE1        0.0000
     45 H8        189.2250   -3.8140   47.7380 H         1 APE1        0.0000
     46 H9        187.5450   -3.4820   48.2230 H         1 APE1        0.0000
     47 H10       188.5380   -4.6150   49.1710 H         1 APE1        0.0000
     48 H11       188.2740   -9.4430   52.1850 H         1 APE1        0.0000
     49 H12       186.3500   -7.9590   47.8460 H         1 APE1        0.0000
     50 H13       185.0310   -9.3710   49.3520 H         1 APE1        0.0000
     51 H14       191.2330   -5.2970   49.2000 H         1 APE1        0.0000
     52 H15       191.7170   -6.5810   48.0670 H         1 APE1        0.0000
     53 H16       193.0040   -4.9430   50.8890 H         1 APE1        0.0000
     54 H17       194.7080   -6.1330   52.3760 H         1 APE1        0.0000
     55 H18       194.7960   -8.6590   52.0570 H         1 APE1        0.0000
     56 H19       183.9530  -11.2850   53.3550 H         1 APE1        0.0000
     57 H20       181.6760  -11.3310   53.0250 H         1 APE1        0.0000
     58 H21       181.8230  -11.9690   51.3700 H         1 APE1        0.0000
     59 H22       182.8390   -9.6160   50.8140 H         1 APE1        0.0000
     60 H23       179.9800   -9.1970   51.4450 H         1 APE1        0.0000
     61 H24       180.8090   -9.1920   49.8700 H         1 APE1        0.0000
     62 H25       180.3080  -10.7330   50.6080 H         1 APE1        0.0000
     63 H26       182.2590   -7.8210   52.2630 H         1 APE1        0.0000
     64 H27       181.1380   -8.8320   53.2050 H         1 APE1        0.0000
     65 H28       182.8950   -9.0780   53.3490 H         1 APE1        0.0000
     66 H29       185.7820  -14.9860   50.9600 H         1 APE1        0.0000
     67 H30       184.6420  -15.4710   52.2380 H         1 APE1        0.0000
     68 S0        192.9600   -8.4900   50.2990 S.2       1 APE1        0.0000
     69 H31       184.1190  -10.3370   50.6010 H         1 APE1        0.0000
     70 H32       185.9230  -12.8830   52.6470 H         1 APE1        0.0000
     71 H33       188.7480  -17.2580   53.9570 H         1 APE1        0.0000
@<TRIPOS>BOND
     1    1   11 1
     2    1   14 ar
     3    1   16 ar
     4    2   14 ar
     5    2   15 ar
     6    3   26 am
     7    3   27 1
     8    3   69 1
     9    4   32 am
    10    4   33 1
    11    4   70 1
    12    5    6 ar
    13    5   34 ar
    14    6    7 ar
    15    6   71 1
    16    7    8 ar
    17    8   34 ar
    18    9   10 1
    19    9   37 1
    20    9   38 1
    21    9   39 1
    22   10   11 1
    23   10   40 1
    24   10   41 1
    25   11   12 1
    26   11   42 1
    27   12   13 1
    28   12   43 1
    29   12   44 1
    30   13   45 1
    31   13   46 1
    32   13   47 1
    33   14   21 1
    34   15   16 ar
    35   15   17 ar
    36   16   18 ar
    37   17   20 ar
    38   17   48 1
    39   18   19 ar
    40   18   49 1
    41   19   20 ar
    42   19   50 1
    43   20   26 1
    44   21   22 1
    45   21   51 1
    46   21   52 1
    47   22   23 ar
    48   22   68 ar
    49   23   24 ar
    50   23   53 1
    51   24   25 ar
    52   24   54 1
    53   25   55 1
    54   25   68 ar
    55   26   35 2
    56   27   28 1
    57   27   32 1
    58   27   56 1
    59   28   29 1
    60   28   57 1
    61   28   58 1
    62   29   30 1
    63   29   31 1
    64   29   59 1
    65   30   60 1
    66   30   61 1
    67   30   62 1
    68   31   63 1
    69   31   64 1
    70   31   65 1
    71   32   36 2
    72   33   34 1
    73   33   66 1
    74   33   67 1
@<TRIPOS>SUBSTRUCTURE
     1 APE1        1 RESIDUE           4 P     APE     0 ROOT
