@<TRIPOS>MOLECULE
APE
71 74 1 0 0
SMALL
NO_CHARGES


@<TRIPOS>ATOM
      1 N0        182.2370   -7.9330   50.8540 N.ar      1 APE1        0.0000
      2 N1        182.8120   -6.4990   49.3130 N.ar      1 APE1        0.0000
      3 N2        188.1540   -9.0210   48.6660 N.am      1 APE1        0.0000
      4 N3        190.7680   -7.7380   49.9620 N.am      1 APE1        0.0000
      5 N4        194.1020   -7.0930   51.3600 N.ar      1 APE1        0.0000
      6 N5        194.9670   -6.3980   50.7040 N.ar      1 APE1        0.0000
      7 N6        194.4020   -5.8970   49.6620 N.ar      1 APE1        0.0000
      8 N7        193.1680   -6.2730   49.6380 N.ar      1 APE1        0.0000
      9 C0        180.4630   -9.8540   49.8190 C.3       1 APE1        0.0000
     10 C1        181.0500  -10.0400   51.2200 C.3       1 APE1        0.0000
     11 C2        181.4090   -8.6740   51.8090 C.3       1 APE1        0.0000
     12 C3        182.1860   -8.8700   53.1130 C.3       1 APE1        0.0000
     13 C4        182.3400   -7.5230   53.8210 C.3       1 APE1        0.0000
     14 C5        181.8170   -6.9380   50.0270 C.ar      1 APE1        0.0000
     15 C6        183.9390   -7.1870   49.6340 C.ar      1 APE1        0.0000
     16 C7        183.5850   -8.1130   50.6320 C.ar      1 APE1        0.0000
     17 C8        185.2590   -7.1290   49.1860 C.ar      1 APE1        0.0000
     18 C9        184.5430   -8.9670   51.1650 C.ar      1 APE1        0.0000
     19 C10       185.8330   -8.9110   50.7220 C.ar      1 APE1        0.0000
     20 C11       186.2040   -7.9940   49.7280 C.ar      1 APE1        0.0000
     21 C12       180.4050   -6.4170   49.9510 C.3       1 APE1        0.0000
     22 C13       180.0080   -6.2500   48.5060 C.ar      1 APE1        0.0000
     23 C14       179.5360   -5.1280   47.9630 C.ar      1 APE1        0.0000
     24 C15       179.2390   -5.2120   46.6140 C.ar      1 APE1        0.0000
     25 C16       179.4690   -6.4030   46.0610 C.ar      1 APE1        0.0000
     26 C17       187.6030   -7.9440   49.2590 C.2       1 APE1        0.0000
     27 C18       189.5420   -8.9700   48.2000 C.3       1 APE1        0.0000
     28 C19       189.7470   -7.7180   47.3430 C.3       1 APE1        0.0000
     29 C20       189.2800   -7.9990   45.9130 C.3       1 APE1        0.0000
     30 C21       189.6990   -9.4130   45.5080 C.3       1 APE1        0.0000
     31 C22       187.7570   -7.8780   45.8400 C.3       1 APE1        0.0000
     32 C23       190.4690   -8.9210   49.3880 C.2       1 APE1        0.0000
     33 C24       191.6690   -7.6920   51.1150 C.3       1 APE1        0.0000
     34 C25       192.9620   -7.0300   50.7160 C.ar      1 APE1        0.0000
     35 O0        188.2570   -6.9290   49.4060 O.2       1 APE1        0.0000
     36 O1        190.9470   -9.9460   49.8260 O.2       1 APE1        0.0000
     37 H0        179.5760   -9.2240   49.8780 H         1 APE1        0.0000
     38 H1        181.2030   -9.3790   49.1750 H         1 APE1        0.0000
     39 H2        180.1910  -10.8260   49.4060 H         1 APE1        0.0000
     40 H3        181.9470  -10.6560   51.1590 H         1 APE1        0.0000
     41 H4        180.3160  -10.5310   51.8600 H         1 APE1        0.0000
     42 H5        180.4960   -8.1130   52.0100 H         1 APE1        0.0000
     43 H6        183.1720   -9.2790   52.8910 H         1 APE1        0.0000
     44 H7        181.6450   -9.5610   53.7590 H         1 APE1        0.0000
     45 H8        183.1170   -6.9400   53.3260 H         1 APE1        0.0000
     46 H9        181.3960   -6.9800   53.7790 H         1 APE1        0.0000
     47 H10       182.6180   -7.6890   54.8620 H         1 APE1        0.0000
     48 H11       185.5470   -6.4120   48.4180 H         1 APE1        0.0000
     49 H12       184.2640   -9.6830   51.9380 H         1 APE1        0.0000
     50 H13       186.5800   -9.5840   51.1440 H         1 APE1        0.0000
     51 H14       180.3460   -5.4540   50.4580 H         1 APE1        0.0000
     52 H15       179.7300   -7.1230   50.4350 H         1 APE1        0.0000
     53 H16       179.3950   -4.2130   48.5380 H         1 APE1        0.0000
     54 H17       178.8470   -4.3680   46.0460 H         1 APE1        0.0000
     55 H18       179.2920   -6.6560   45.0160 H         1 APE1        0.0000
     56 H19       189.7580   -9.8580   47.6050 H         1 APE1        0.0000
     57 H20       190.8040   -7.4520   47.3350 H         1 APE1        0.0000
     58 H21       189.1690   -6.8930   47.7590 H         1 APE1        0.0000
     59 H22       189.7340   -7.2770   45.2350 H         1 APE1        0.0000
     60 H23       190.6780   -9.6360   45.9310 H         1 APE1        0.0000
     61 H24       188.9690  -10.1300   45.8830 H         1 APE1        0.0000
     62 H25       189.7500   -9.4800   44.4210 H         1 APE1        0.0000
     63 H26       187.3450   -7.8710   46.8490 H         1 APE1        0.0000
     64 H27       187.4890   -6.9510   45.3320 H         1 APE1        0.0000
     65 H28       187.3510   -8.7260   45.2880 H         1 APE1        0.0000
     66 H29       191.8710   -8.7070   51.4580 H         1 APE1        0.0000
     67 H30       191.2020   -7.1240   51.9190 H         1 APE1        0.0000
     68 S0        180.1030   -7.5050   47.2780 S.2       1 APE1        0.0000
     69 H31       187.6330   -9.8300   48.5490 H         1 APE1        0.0000
     70 H32       190.3860   -6.9200   49.6110 H         1 APE1        0.0000
     71 H33       195.8950   -6.2720   50.9560 H         1 APE1        0.0000
@<TRIPOS>BOND
     1    1   11 1
     2    1   14 ar
     3    1   16 ar
     4    2   14 ar
     5    2   15 ar
     6    3   26 am
     7    3   27 1
     8    3   69 1
     9    4   32 am
    10    4   33 1
    11    4   70 1
    12    5    6 ar
    13    5   34 ar
    14    6    7 ar
    15    6   71 1
    16    7    8 ar
    17    8   34 ar
    18    9   10 1
    19    9   37 1
    20    9   38 1
    21    9   39 1
    22   10   11 1
    23   10   40 1
    24   10   41 1
    25   11   12 1
    26   11   42 1
    27   12   13 1
    28   12   43 1
    29   12   44 1
    30   13   45 1
    31   13   46 1
    32   13   47 1
    33   14   21 1
    34   15   16 ar
    35   15   17 ar
    36   16   18 ar
    37   17   20 ar
    38   17   48 1
    39   18   19 ar
    40   18   49 1
    41   19   20 ar
    42   19   50 1
    43   20   26 1
    44   21   22 1
    45   21   51 1
    46   21   52 1
    47   22   23 ar
    48   22   68 ar
    49   23   24 ar
    50   23   53 1
    51   24   25 ar
    52   24   54 1
    53   25   55 1
    54   25   68 ar
    55   26   35 2
    56   27   28 1
    57   27   32 1
    58   27   56 1
    59   28   29 1
    60   28   57 1
    61   28   58 1
    62   29   30 1
    63   29   31 1
    64   29   59 1
    65   30   60 1
    66   30   61 1
    67   30   62 1
    68   31   63 1
    69   31   64 1
    70   31   65 1
    71   32   36 2
    72   33   34 1
    73   33   66 1
    74   33   67 1
@<TRIPOS>SUBSTRUCTURE
     1 APE1        1 RESIDUE           4 L     APE     0 ROOT
