@<TRIPOS>MOLECULE
APE
70 73 1 0 0
SMALL
NO_CHARGES


@<TRIPOS>ATOM
      1 C0        186.1990  -10.2580   60.1720 C.3       1 APE1        0.0000
      2 C1        184.7420  -10.2700   59.6860 C.3       1 APE1        0.0000
      3 C2        184.5140   -9.0270   58.7830 C.3       1 APE1        0.0000
      4 C3        183.0050   -8.8560   58.4650 C.3       1 APE1        0.0000
      5 C4        182.2020   -9.1240   59.7450 C.3       1 APE1        0.0000
      6 N0        185.2550   -9.1960   57.5020 N.ar      1 APE1        0.0000
      7 C5        185.4400  -10.3950   56.8360 C.ar      1 APE1        0.0000
      8 C6        184.8680  -11.7170   57.3350 C.3       1 APE1        0.0000
      9 C7        183.4460  -11.8080   56.8230 C.ar      1 APE1        0.0000
     10 C8        182.3300  -12.1840   57.5180 C.ar      1 APE1        0.0000
     11 C9        181.1650  -12.1730   56.7330 C.ar      1 APE1        0.0000
     12 C10       181.3990  -11.7880   55.4440 C.ar      1 APE1        0.0000
     13 S0        183.0680  -11.4320   55.1750 S.2       1 APE1        0.0000
     14 N1        186.1640  -10.2440   55.7720 N.ar      1 APE1        0.0000
     15 C11       186.4580   -8.9040   55.6990 C.ar      1 APE1        0.0000
     16 C12       185.8920   -8.2310   56.7630 C.ar      1 APE1        0.0000
     17 C13       186.0230   -6.8410   56.9150 C.ar      1 APE1        0.0000
     18 C14       186.7460   -6.1450   55.9670 C.ar      1 APE1        0.0000
     19 C15       187.3450   -6.8130   54.8600 C.ar      1 APE1        0.0000
     20 C16       188.1030   -6.0760   53.8510 C.2       1 APE1        0.0000
     21 N2        188.5740   -6.7610   52.7540 N.am      1 APE1        0.0000
     22 C17       189.4460   -6.1820   51.7240 C.3       1 APE1        0.0000
     23 C18       190.7490   -7.0280   51.6910 C.3       1 APE1        0.0000
     24 C19       190.4880   -8.4500   52.2440 C.3       1 APE1        0.0000
     25 C20       190.9340   -8.6480   53.7030 C.3       1 APE1        0.0000
     26 C21       191.2470   -9.4650   51.3720 C.3       1 APE1        0.0000
     27 C22       188.6810   -6.2640   50.4120 C.2       1 APE1        0.0000
     28 N3        187.8530   -7.3120   50.2460 N.am      1 APE1        0.0000
     29 C23       187.0980   -7.5840   49.0250 C.3       1 APE1        0.0000
     30 C24       188.1220   -8.0930   48.0340 C.ar      1 APE1        0.0000
     31 N4        188.0610   -7.8560   46.7730 N.ar      1 APE1        0.0000
     32 N5        189.1280   -8.5020   46.3440 N.ar      1 APE1        0.0000
     33 N6        189.8140   -9.1120   47.2950 N.ar      1 APE1        0.0000
     34 N7        189.1680   -8.8510   48.3870 N.ar      1 APE1        0.0000
     35 O0        188.8160   -5.3890   49.5550 O.2       1 APE1        0.0000
     36 O1        188.3490   -4.8730   53.9470 O.2       1 APE1        0.0000
     37 C25       187.1950   -8.1980   54.7410 C.ar      1 APE1        0.0000
     38 H0        186.3770  -11.1250   60.8080 H         1 APE1        0.0000
     39 H1        186.3850   -9.3460   60.7400 H         1 APE1        0.0000
     40 H2        186.8690  -10.2940   59.3130 H         1 APE1        0.0000
     41 H3        184.0680  -10.2310   60.5420 H         1 APE1        0.0000
     42 H4        184.5520  -11.1790   59.1150 H         1 APE1        0.0000
     43 H5        184.8740   -8.1460   59.3130 H         1 APE1        0.0000
     44 H6        182.7100   -9.5650   57.6910 H         1 APE1        0.0000
     45 H7        182.8150   -7.8400   58.1180 H         1 APE1        0.0000
     46 H8        182.3940  -10.1410   60.0880 H         1 APE1        0.0000
     47 H9        181.1380   -9.0050   59.5380 H         1 APE1        0.0000
     48 H10       182.5030   -8.4170   60.5180 H         1 APE1        0.0000
     49 H11       184.8750  -11.7400   58.4250 H         1 APE1        0.0000
     50 H12       185.4580  -12.5490   56.9500 H         1 APE1        0.0000
     51 H13       182.3430  -12.4610   58.5620 H         1 APE1        0.0000
     52 H14       180.1890  -12.4410   57.1090 H         1 APE1        0.0000
     53 H15       180.6340  -11.7150   54.6850 H         1 APE1        0.0000
     54 H16       185.5700   -6.3300   57.7520 H         1 APE1        0.0000
     55 H17       186.8600   -5.0760   56.0660 H         1 APE1        0.0000
     56 H18       189.7160   -5.1430   51.9150 H         1 APE1        0.0000
     57 H19       191.5090   -6.5400   52.3010 H         1 APE1        0.0000
     58 H20       191.1020   -7.1030   50.6620 H         1 APE1        0.0000
     59 H21       189.4080   -8.5980   52.2160 H         1 APE1        0.0000
     60 H22       192.0130   -8.5080   53.7750 H         1 APE1        0.0000
     61 H23       190.6750   -9.6560   54.0280 H         1 APE1        0.0000
     62 H24       190.4300   -7.9200   54.3390 H         1 APE1        0.0000
     63 H25       192.3180   -9.2710   51.4370 H         1 APE1        0.0000
     64 H26       190.9230   -9.3680   50.3360 H         1 APE1        0.0000
     65 H27       191.0390  -10.4750   51.7250 H         1 APE1        0.0000
     66 H28       186.6270   -6.6730   48.6550 H         1 APE1        0.0000
     67 H29       186.3340   -8.3390   49.2080 H         1 APE1        0.0000
     68 H30       187.6470   -8.7220   53.9120 H         1 APE1        0.0000
     69 H31       188.4130   -7.7800   52.7040 H         1 APE1        0.0000
     70 H32       187.8060   -8.0050   50.9780 H         1 APE1        0.0000
@<TRIPOS>BOND
     1    1    2 1
     2    1   38 1
     3    1   39 1
     4    1   40 1
     5    2    3 1
     6    2   41 1
     7    2   42 1
     8    3    4 1
     9    3    6 1
    10    3   43 1
    11    4    5 1
    12    4   44 1
    13    4   45 1
    14    5   46 1
    15    5   47 1
    16    5   48 1
    17    6    7 ar
    18    6   16 ar
    19    7    8 1
    20    7   14 ar
    21    8    9 1
    22    8   49 1
    23    8   50 1
    24    9   10 ar
    25    9   13 ar
    26   10   11 ar
    27   10   51 1
    28   11   12 ar
    29   11   52 1
    30   12   13 ar
    31   12   53 1
    32   14   15 ar
    33   15   16 ar
    34   15   37 ar
    35   16   17 ar
    36   17   18 ar
    37   17   54 1
    38   18   19 ar
    39   18   55 1
    40   19   20 1
    41   19   37 ar
    42   20   21 am
    43   20   36 2
    44   21   22 1
    45   21   69 1
    46   22   23 1
    47   22   27 1
    48   22   56 1
    49   23   24 1
    50   23   57 1
    51   23   58 1
    52   24   25 1
    53   24   26 1
    54   24   59 1
    55   25   60 1
    56   25   61 1
    57   25   62 1
    58   26   63 1
    59   26   64 1
    60   26   65 1
    61   27   28 am
    62   27   35 2
    63   28   29 1
    64   28   70 1
    65   29   30 1
    66   29   66 1
    67   29   67 1
    68   30   31 ar
    69   30   34 ar
    70   31   32 ar
    71   32   33 ar
    72   33   34 ar
    73   37   68 1
@<TRIPOS>SUBSTRUCTURE
     1 APE1        1 RESIDUE           4 L     APE     0 ROOT
