@<TRIPOS>MOLECULE
APE
70 73 1 0 0
SMALL
NO_CHARGES


@<TRIPOS>ATOM
      1 C0        189.3210   -8.9090   49.2600 C.3       1 APE1        0.0000
      2 C1        188.0170   -8.5170   49.9690 C.3       1 APE1        0.0000
      3 C2        188.3680   -7.6140   51.1830 C.3       1 APE1        0.0000
      4 C3        189.7890   -7.0120   51.0190 C.3       1 APE1        0.0000
      5 C4        189.6650   -5.4850   50.9290 C.3       1 APE1        0.0000
      6 N0        188.3340   -8.4210   52.4340 N.ar      1 APE1        0.0000
      7 C5        189.4350   -8.7440   53.2090 C.ar      1 APE1        0.0000
      8 C6        190.8480   -8.2760   52.8780 C.3       1 APE1        0.0000
      9 C7        191.6950   -9.5170   52.6900 C.ar      1 APE1        0.0000
     10 C8        191.9800  -10.4820   53.6150 C.ar      1 APE1        0.0000
     11 C9        192.8120  -11.4960   53.1120 C.ar      1 APE1        0.0000
     12 C10       193.1560  -11.2980   51.8060 C.ar      1 APE1        0.0000
     13 S0        192.4580   -9.8510   51.1710 S.2       1 APE1        0.0000
     14 N1        189.1090   -9.4960   54.2130 N.ar      1 APE1        0.0000
     15 C11       187.7490   -9.6680   54.1330 C.ar      1 APE1        0.0000
     16 C12       187.2450   -8.9970   53.0360 C.ar      1 APE1        0.0000
     17 C13       185.8730   -8.9930   52.7360 C.ar      1 APE1        0.0000
     18 C14       185.0190   -9.6890   53.5700 C.ar      1 APE1        0.0000
     19 C15       185.5110  -10.3930   54.7070 C.ar      1 APE1        0.0000
     20 C16       184.6070  -11.1220   55.5940 C.2       1 APE1        0.0000
     21 N2        184.8140  -11.0400   56.9530 N.am      1 APE1        0.0000
     22 C17       184.0640  -11.8080   57.9540 C.3       1 APE1        0.0000
     23 C18       184.6560  -11.4540   59.3480 C.3       1 APE1        0.0000
     24 C19       185.1990  -10.0050   59.3550 C.3       1 APE1        0.0000
     25 C20       186.6560   -9.8830   59.8350 C.3       1 APE1        0.0000
     26 C21       184.3180   -9.1530   60.2850 C.3       1 APE1        0.0000
     27 C22       182.6090  -11.3790   57.8300 C.2       1 APE1        0.0000
     28 N3        182.3720  -10.1160   57.4290 N.am      1 APE1        0.0000
     29 C23       181.0430   -9.5190   57.3240 C.3       1 APE1        0.0000
     30 C24       181.2860   -8.0870   56.8990 C.ar      1 APE1        0.0000
     31 N4        180.6730   -7.0850   57.4180 N.ar      1 APE1        0.0000
     32 N5        181.1950   -6.0870   56.7310 N.ar      1 APE1        0.0000
     33 N6        182.0880   -6.4570   55.8280 N.ar      1 APE1        0.0000
     34 N7        182.1490   -7.7470   55.9340 N.ar      1 APE1        0.0000
     35 O0        181.7010  -12.1740   58.0740 O.2       1 APE1        0.0000
     36 O1        183.6790  -11.8160   55.1790 O.2       1 APE1        0.0000
     37 C25       186.8830  -10.3770   54.9740 C.ar      1 APE1        0.0000
     38 H0        189.0920   -9.5440   48.4040 H         1 APE1        0.0000
     39 H1        189.9630   -9.4520   49.9540 H         1 APE1        0.0000
     40 H2        189.8340   -8.0100   48.9190 H         1 APE1        0.0000
     41 H3        187.5020   -9.4140   50.3140 H         1 APE1        0.0000
     42 H4        187.3730   -7.9720   49.2790 H         1 APE1        0.0000
     43 H5        187.6370   -6.8070   51.2350 H         1 APE1        0.0000
     44 H6        190.2490   -7.3980   50.1090 H         1 APE1        0.0000
     45 H7        190.4030   -7.2810   51.8780 H         1 APE1        0.0000
     46 H8        189.0500   -5.2200   50.0690 H         1 APE1        0.0000
     47 H9        190.6560   -5.0460   50.8160 H         1 APE1        0.0000
     48 H10       189.2010   -5.1040   51.8380 H         1 APE1        0.0000
     49 H11       191.2440   -7.6740   53.6960 H         1 APE1        0.0000
     50 H12       190.8410   -7.6850   51.9620 H         1 APE1        0.0000
     51 H13       191.6050  -10.4670   54.6280 H         1 APE1        0.0000
     52 H14       193.1440  -12.3420   53.6960 H         1 APE1        0.0000
     53 H15       193.7880  -11.9650   51.2380 H         1 APE1        0.0000
     54 H16       185.4950   -8.4600   51.8760 H         1 APE1        0.0000
     55 H17       183.9600   -9.7000   53.3560 H         1 APE1        0.0000
     56 H18       184.1310  -12.8870   57.8150 H         1 APE1        0.0000
     57 H19       185.4690  -12.1430   59.5780 H         1 APE1        0.0000
     58 H20       183.8760  -11.5480   60.1030 H         1 APE1        0.0000
     59 H21       185.1730   -9.6610   58.3210 H         1 APE1        0.0000
     60 H22       186.7270  -10.2180   60.8700 H         1 APE1        0.0000
     61 H23       186.9750   -8.8430   59.7680 H         1 APE1        0.0000
     62 H24       187.2980  -10.5010   59.2080 H         1 APE1        0.0000
     63 H25       184.3820   -9.5400   61.3020 H         1 APE1        0.0000
     64 H26       183.2830   -9.1950   59.9450 H         1 APE1        0.0000
     65 H27       184.6640   -8.1200   60.2670 H         1 APE1        0.0000
     66 H28       180.5320   -9.5510   58.2860 H         1 APE1        0.0000
     67 H29       180.4460  -10.0430   56.5780 H         1 APE1        0.0000
     68 H30       187.2740  -10.9110   55.8280 H         1 APE1        0.0000
     69 H31       185.6270  -10.5030   57.2940 H         1 APE1        0.0000
     70 H32       183.1620   -9.5090   57.2670 H         1 APE1        0.0000
@<TRIPOS>BOND
     1    1    2 1
     2    1   38 1
     3    1   39 1
     4    1   40 1
     5    2    3 1
     6    2   41 1
     7    2   42 1
     8    3    4 1
     9    3    6 1
    10    3   43 1
    11    4    5 1
    12    4   44 1
    13    4   45 1
    14    5   46 1
    15    5   47 1
    16    5   48 1
    17    6    7 ar
    18    6   16 ar
    19    7    8 1
    20    7   14 ar
    21    8    9 1
    22    8   49 1
    23    8   50 1
    24    9   10 ar
    25    9   13 ar
    26   10   11 ar
    27   10   51 1
    28   11   12 ar
    29   11   52 1
    30   12   13 ar
    31   12   53 1
    32   14   15 ar
    33   15   16 ar
    34   15   37 ar
    35   16   17 ar
    36   17   18 ar
    37   17   54 1
    38   18   19 ar
    39   18   55 1
    40   19   20 1
    41   19   37 ar
    42   20   21 am
    43   20   36 2
    44   21   22 1
    45   21   69 1
    46   22   23 1
    47   22   27 1
    48   22   56 1
    49   23   24 1
    50   23   57 1
    51   23   58 1
    52   24   25 1
    53   24   26 1
    54   24   59 1
    55   25   60 1
    56   25   61 1
    57   25   62 1
    58   26   63 1
    59   26   64 1
    60   26   65 1
    61   27   28 am
    62   27   35 2
    63   28   29 1
    64   28   70 1
    65   29   30 1
    66   29   66 1
    67   29   67 1
    68   30   31 ar
    69   30   34 ar
    70   31   32 ar
    71   32   33 ar
    72   33   34 ar
    73   37   68 1
@<TRIPOS>SUBSTRUCTURE
     1 APE1        1 RESIDUE           4 L     APE     0 ROOT
