@<TRIPOS>MOLECULE
APE
70 73 1 0 0
SMALL
NO_CHARGES


@<TRIPOS>ATOM
      1 C0        182.8560  -11.0110   54.0760 C.3       1 APE1        0.0000
      2 C1        183.1790  -11.8270   55.3360 C.3       1 APE1        0.0000
      3 C2        183.5200  -10.8420   56.4870 C.3       1 APE1        0.0000
      4 C3        182.9480   -9.4320   56.1830 C.3       1 APE1        0.0000
      5 C4        183.6290   -8.4180   57.1120 C.3       1 APE1        0.0000
      6 N0        184.9990  -10.7340   56.6330 N.ar      1 APE1        0.0000
      7 C5        185.7260  -11.1450   57.7370 C.ar      1 APE1        0.0000
      8 C6        185.0850  -11.7980   58.9560 C.3       1 APE1        0.0000
      9 C7        184.3770  -10.7030   59.7260 C.ar      1 APE1        0.0000
     10 C8        183.0370  -10.5830   59.9660 C.ar      1 APE1        0.0000
     11 C9        182.7130   -9.4330   60.7060 C.ar      1 APE1        0.0000
     12 C10       183.8080   -8.6830   61.0250 C.ar      1 APE1        0.0000
     13 S0        185.2650   -9.3850   60.4160 S.2       1 APE1        0.0000
     14 N1        186.9880  -10.8840   57.6020 N.ar      1 APE1        0.0000
     15 C11       187.1260  -10.3040   56.3640 C.ar      1 APE1        0.0000
     16 C12       185.8980  -10.2110   55.7390 C.ar      1 APE1        0.0000
     17 C13       185.7620   -9.6740   54.4490 C.ar      1 APE1        0.0000
     18 C14       186.8980   -9.2260   53.8040 C.ar      1 APE1        0.0000
     19 C15       188.1780   -9.3060   54.4250 C.ar      1 APE1        0.0000
     20 C16       189.3820   -8.8410   53.7390 C.2       1 APE1        0.0000
     21 N2        189.4300   -8.9310   52.3660 N.am      1 APE1        0.0000
     22 C17       190.6110   -8.6150   51.5540 C.3       1 APE1        0.0000
     23 C18       191.4020   -9.9380   51.3520 C.3       1 APE1        0.0000
     24 C19       192.6280   -9.9870   52.2960 C.3       1 APE1        0.0000
     25 C20       193.9510  -10.3290   51.5890 C.3       1 APE1        0.0000
     26 C21       192.3750  -11.0530   53.3760 C.3       1 APE1        0.0000
     27 C22       190.0950   -8.0540   50.2370 C.2       1 APE1        0.0000
     28 N3        189.5940   -6.8060   50.2540 N.am      1 APE1        0.0000
     29 C23       188.9940   -6.1410   49.0990 C.3       1 APE1        0.0000
     30 C24       187.6820   -6.8590   48.8680 C.ar      1 APE1        0.0000
     31 N4        186.7290   -6.8780   49.7280 N.ar      1 APE1        0.0000
     32 N5        185.8370   -7.6180   49.0990 N.ar      1 APE1        0.0000
     33 N6        186.2230   -8.0400   47.9070 N.ar      1 APE1        0.0000
     34 N7        187.4130   -7.5520   47.7550 N.ar      1 APE1        0.0000
     35 O0        190.1570   -8.7260   49.2060 O.2       1 APE1        0.0000
     36 O1        190.3580   -8.3860   54.3360 O.2       1 APE1        0.0000
     37 C25       188.2760   -9.8450   55.7110 C.ar      1 APE1        0.0000
     38 H0        182.6140  -11.6880   53.2570 H         1 APE1        0.0000
     39 H1        183.7210  -10.4060   53.8040 H         1 APE1        0.0000
     40 H2        182.0040  -10.3600   54.2730 H         1 APE1        0.0000
     41 H3        184.0320  -12.4780   55.1440 H         1 APE1        0.0000
     42 H4        182.3160  -12.4320   55.6130 H         1 APE1        0.0000
     43 H5        183.0770  -11.2220   57.4070 H         1 APE1        0.0000
     44 H6        181.8720   -9.4260   56.3580 H         1 APE1        0.0000
     45 H7        183.1480   -9.1700   55.1440 H         1 APE1        0.0000
     46 H8        183.4270   -8.6830   58.1500 H         1 APE1        0.0000
     47 H9        183.2390   -7.4200   56.9090 H         1 APE1        0.0000
     48 H10       184.7050   -8.4300   56.9370 H         1 APE1        0.0000
     49 H11       185.8510  -12.2590   59.5800 H         1 APE1        0.0000
     50 H12       184.3690  -12.5570   58.6410 H         1 APE1        0.0000
     51 H13       182.3030  -11.2970   59.6230 H         1 APE1        0.0000
     52 H14       181.7050   -9.1710   60.9920 H         1 APE1        0.0000
     53 H15       183.7690   -7.7630   61.5890 H         1 APE1        0.0000
     54 H16       184.7940   -9.6130   53.9730 H         1 APE1        0.0000
     55 H17       186.8150   -8.8080   52.8120 H         1 APE1        0.0000
     56 H18       191.2750   -7.8850   52.0170 H         1 APE1        0.0000
     57 H19       191.7430   -9.9980   50.3180 H         1 APE1        0.0000
     58 H20       190.7490  -10.7830   51.5690 H         1 APE1        0.0000
     59 H21       192.7370   -8.9860   52.7120 H         1 APE1        0.0000
     60 H22       193.8840  -11.3270   51.1560 H         1 APE1        0.0000
     61 H23       194.7670  -10.3000   52.3110 H         1 APE1        0.0000
     62 H24       194.1390   -9.6020   50.7990 H         1 APE1        0.0000
     63 H25       192.2740  -12.0310   52.9050 H         1 APE1        0.0000
     64 H26       191.4590  -10.8130   53.9160 H         1 APE1        0.0000
     65 H27       193.2130  -11.0700   54.0730 H         1 APE1        0.0000
     66 H28       189.6400   -6.2340   48.2260 H         1 APE1        0.0000
     67 H29       188.8210   -5.0860   49.3120 H         1 APE1        0.0000
     68 H30       189.2370   -9.9070   56.2000 H         1 APE1        0.0000
     69 H31       188.6320   -9.3640   51.8730 H         1 APE1        0.0000
     70 H32       189.5520   -6.3190   51.1370 H         1 APE1        0.0000
@<TRIPOS>BOND
     1    1    2 1
     2    1   38 1
     3    1   39 1
     4    1   40 1
     5    2    3 1
     6    2   41 1
     7    2   42 1
     8    3    4 1
     9    3    6 1
    10    3   43 1
    11    4    5 1
    12    4   44 1
    13    4   45 1
    14    5   46 1
    15    5   47 1
    16    5   48 1
    17    6    7 ar
    18    6   16 ar
    19    7    8 1
    20    7   14 ar
    21    8    9 1
    22    8   49 1
    23    8   50 1
    24    9   10 ar
    25    9   13 ar
    26   10   11 ar
    27   10   51 1
    28   11   12 ar
    29   11   52 1
    30   12   13 ar
    31   12   53 1
    32   14   15 ar
    33   15   16 ar
    34   15   37 ar
    35   16   17 ar
    36   17   18 ar
    37   17   54 1
    38   18   19 ar
    39   18   55 1
    40   19   20 1
    41   19   37 ar
    42   20   21 am
    43   20   36 2
    44   21   22 1
    45   21   69 1
    46   22   23 1
    47   22   27 1
    48   22   56 1
    49   23   24 1
    50   23   57 1
    51   23   58 1
    52   24   25 1
    53   24   26 1
    54   24   59 1
    55   25   60 1
    56   25   61 1
    57   25   62 1
    58   26   63 1
    59   26   64 1
    60   26   65 1
    61   27   28 am
    62   27   35 2
    63   28   29 1
    64   28   70 1
    65   29   30 1
    66   29   66 1
    67   29   67 1
    68   30   31 ar
    69   30   34 ar
    70   31   32 ar
    71   32   33 ar
    72   33   34 ar
    73   37   68 1
@<TRIPOS>SUBSTRUCTURE
     1 APE1        1 RESIDUE           4 L     APE     0 ROOT
