@<TRIPOS>MOLECULE
RET
20 20 1 0 0
SMALL
NO_CHARGES


@<TRIPOS>ATOM
      1 C1         33.8140   23.7250   -1.6470 C.3       1 RET427      0.0000
      2 C2         33.7130   22.1930   -1.6500 C.3       1 RET427      0.0000
      3 C3         34.9190   21.4510   -1.1310 C.3       1 RET427      0.0000
      4 C4         36.2460   21.9330   -1.7550 C.3       1 RET427      0.0000
      5 C5         36.3690   23.4470   -1.8220 C.2       1 RET427      0.0000
      6 C6         35.2810   24.2750   -1.7450 C.2       1 RET427      0.0000
      7 C7         35.3800   25.7800   -1.7260 C.2       1 RET427      0.0000
      8 C8         36.1070   26.4940   -0.8550 C.2       1 RET427      0.0000
      9 C9         36.2640   27.9380   -0.7310 C.2       1 RET427      0.0000
     10 C10        37.1070   28.3340    0.2470 C.2       1 RET427      0.0000
     11 C11        37.4790   29.6900    0.6010 C.2       1 RET427      0.0000
     12 C12        38.2670   30.1370    1.6000 C.2       1 RET427      0.0000
     13 C13        38.8630   29.5140    2.8110 C.2       1 RET427      0.0000
     14 C14        39.7380   30.2910    3.5190 C.2       1 RET427      0.0000
     15 C15        40.3800   29.9040    4.7850 C.3       1 RET427      0.0000
     16 C16        32.9710   24.1760   -2.8260 C.3       1 RET427      0.0000
     17 C17        33.1070   24.2840   -0.4080 C.3       1 RET427      0.0000
     18 C18        37.8260   23.8420   -1.8750 C.3       1 RET427      0.0000
     19 C19        35.4900   28.8550   -1.6670 C.3       1 RET427      0.0000
     20 C20        38.5140   28.1180    3.2850 C.3       1 RET427      0.0000
@<TRIPOS>BOND
     1    1    2 1
     2    1    6 1
     3    1   16 1
     4    1   17 1
     5    2    3 1
     6    3    4 1
     7    4    5 1
     8    5    6 2
     9    5   18 1
    10    6    7 2
    11    7    8 2
    12    8    9 2
    13    9   10 2
    14    9   19 1
    15   10   11 2
    16   11   12 2
    17   12   13 2
    18   13   14 2
    19   13   20 1
    20   14   15 1
@<TRIPOS>SUBSTRUCTURE
     1 RET427      1 RESIDUE           4 A     RET     0 ROOT
