@<TRIPOS>MOLECULE
RET
20 20 1 0 0
SMALL
NO_CHARGES


@<TRIPOS>ATOM
      1 C1        -43.0730  -16.4620   33.9510 C.3       1 RET427      0.0000
      2 C2        -43.3040  -18.0130   34.0590 C.3       1 RET427      0.0000
      3 C3        -44.5210  -18.5000   33.4620 C.3       1 RET427      0.0000
      4 C4        -45.7420  -17.7530   33.8360 C.3       1 RET427      0.0000
      5 C5        -45.5930  -16.2650   33.6970 C.2       1 RET427      0.0000
      6 C6        -44.4010  -15.6740   33.8500 C.2       1 RET427      0.0000
      7 C7        -44.2540  -14.2000   33.9420 C.2       1 RET427      0.0000
      8 C8        -44.9060  -13.3840   34.7610 C.2       1 RET427      0.0000
      9 C9        -44.7600  -11.9290   34.8710 C.2       1 RET427      0.0000
     10 C10       -45.2870  -11.3370   35.9630 C.2       1 RET427      0.0000
     11 C11       -45.2760   -9.9520   36.3410 C.2       1 RET427      0.0000
     12 C12       -45.9470   -9.4480   37.4010 C.2       1 RET427      0.0000
     13 C13       -45.9550   -8.0760   37.8660 C.2       1 RET427      0.0000
     14 C14       -46.8150   -7.7200   38.8540 C.2       1 RET427      0.0000
     15 C15       -46.9690   -6.4140   39.4720 C.3       1 RET427      0.0000
     16 C16       -42.1180  -16.0050   32.8960 C.3       1 RET427      0.0000
     17 C17       -42.4150  -16.2500   35.3020 C.3       1 RET427      0.0000
     18 C18       -46.8860  -15.5430   33.3700 C.3       1 RET427      0.0000
     19 C19       -44.0410  -11.2120   33.7590 C.3       1 RET427      0.0000
     20 C20       -44.9780   -7.1040   37.2650 C.3       1 RET427      0.0000
@<TRIPOS>BOND
     1    1    2 1
     2    1    6 1
     3    1   16 1
     4    1   17 1
     5    2    3 1
     6    3    4 1
     7    4    5 1
     8    5    6 2
     9    5   18 1
    10    6    7 2
    11    7    8 2
    12    8    9 2
    13    9   10 2
    14    9   19 1
    15   10   11 2
    16   11   12 2
    17   12   13 2
    18   13   14 2
    19   13   20 1
    20   14   15 1
@<TRIPOS>SUBSTRUCTURE
     1 RET427      1 RESIDUE           4 A     RET     0 ROOT
