@<TRIPOS>MOLECULE
RET
20 20 1 0 0
SMALL
NO_CHARGES


@<TRIPOS>ATOM
      1 C1          7.3630   45.7390   34.1060 C.3       1 RET427      0.0000
      2 C2          6.1610   46.4720   34.7350 C.3       1 RET427      0.0000
      3 C3          5.8160   47.7390   33.9470 C.3       1 RET427      0.0000
      4 C4          7.0270   48.6640   33.8660 C.3       1 RET427      0.0000
      5 C5          8.3820   48.0180   33.7970 C.2       1 RET427      0.0000
      6 C6          8.5710   46.6990   33.9750 C.2       1 RET427      0.0000
      7 C7          9.9560   46.1740   33.8530 C.2       1 RET427      0.0000
      8 C8         10.9700   46.5250   34.6510 C.2       1 RET427      0.0000
      9 C9         12.0010   45.5090   35.0450 C.2       1 RET427      0.0000
     10 C10        12.9920   45.8890   35.8810 C.2       1 RET427      0.0000
     11 C11        13.9580   44.9170   36.3460 C.2       1 RET427      0.0000
     12 C12        15.0200   45.3430   37.0040 C.2       1 RET427      0.0000
     13 C13        15.8200   44.4110   37.8620 C.2       1 RET427      0.0000
     14 C14        16.8140   44.8880   38.6320 C.2       1 RET427      0.0000
     15 C15        17.3180   44.0690   39.7200 C.3       1 RET427      0.0000
     16 C16         6.9750   45.2840   32.7010 C.3       1 RET427      0.0000
     17 C17         7.6320   44.4830   34.9650 C.3       1 RET427      0.0000
     18 C18         9.5640   48.9070   33.5860 C.3       1 RET427      0.0000
     19 C19        11.9810   44.0690   34.5280 C.3       1 RET427      0.0000
     20 C20        15.4410   42.9630   38.0330 C.3       1 RET427      0.0000
@<TRIPOS>BOND
     1    1    2 1
     2    1    6 1
     3    1   16 1
     4    1   17 1
     5    2    3 1
     6    3    4 1
     7    4    5 1
     8    5    6 2
     9    5   18 1
    10    6    7 2
    11    7    8 2
    12    8    9 2
    13    9   10 2
    14    9   19 1
    15   10   11 2
    16   11   12 2
    17   12   13 2
    18   13   14 2
    19   13   20 1
    20   14   15 1
@<TRIPOS>SUBSTRUCTURE
     1 RET427      1 RESIDUE           4 A     RET     0 ROOT
