@<TRIPOS>MOLECULE
RET
20 20 1 0 0
SMALL
NO_CHARGES


@<TRIPOS>ATOM
      1 C1        -43.2810  -16.6480   34.5260 C.3       1 RET427      0.0000
      2 C2        -43.6140  -18.1090   34.8700 C.3       1 RET427      0.0000
      3 C3        -44.6980  -18.6440   33.9380 C.3       1 RET427      0.0000
      4 C4        -45.9940  -17.8580   34.1250 C.3       1 RET427      0.0000
      5 C5        -45.7910  -16.3550   34.0920 C.2       1 RET427      0.0000
      6 C6        -44.5820  -15.8080   34.3680 C.2       1 RET427      0.0000
      7 C7        -44.4730  -14.3230   34.3610 C.2       1 RET427      0.0000
      8 C8        -45.1190  -13.5880   35.2770 C.2       1 RET427      0.0000
      9 C9        -44.9290  -12.1200   35.4110 C.2       1 RET427      0.0000
     10 C10       -45.8040  -11.5310   36.2510 C.2       1 RET427      0.0000
     11 C11       -45.6830  -10.1510   36.6960 C.2       1 RET427      0.0000
     12 C12       -46.5130   -9.7800   37.6540 C.2       1 RET427      0.0000
     13 C13       -46.2780   -8.5220   38.3660 C.2       1 RET427      0.0000
     14 C14       -47.2500   -8.1830   39.2390 C.2       1 RET427      0.0000
     15 C15       -47.1640   -6.9800   40.0810 C.3       1 RET427      0.0000
     16 C16       -42.4180  -16.5670   33.2570 C.3       1 RET427      0.0000
     17 C17       -42.4230  -16.0920   35.6680 C.3       1 RET427      0.0000
     18 C18       -47.0150  -15.4890   33.9310 C.3       1 RET427      0.0000
     19 C19       -43.7880  -11.3810   34.7240 C.3       1 RET427      0.0000
     20 C20       -44.8860   -7.9110   38.3320 C.3       1 RET427      0.0000
@<TRIPOS>BOND
     1    1    2 1
     2    1    6 1
     3    1   16 1
     4    1   17 1
     5    2    3 1
     6    3    4 1
     7    4    5 1
     8    5    6 2
     9    5   18 1
    10    6    7 2
    11    7    8 2
    12    8    9 2
    13    9   10 2
    14    9   19 1
    15   10   11 2
    16   11   12 2
    17   12   13 2
    18   13   14 2
    19   13   20 1
    20   14   15 1
@<TRIPOS>SUBSTRUCTURE
     1 RET427      1 RESIDUE           4 A     RET     0 ROOT
