@<TRIPOS>MOLECULE
RET
20 20 1 0 0
SMALL
NO_CHARGES


@<TRIPOS>ATOM
      1 C1        107.3540  128.5090  114.7510 C.3       1 RET427      0.0000
      2 C2        106.6060  129.8180  114.5440 C.3       1 RET427      0.0000
      3 C3        107.1160  130.9250  115.4500 C.3       1 RET427      0.0000
      4 C4        107.0700  130.5200  116.9150 C.3       1 RET427      0.0000
      5 C5        107.5190  129.1170  117.1580 C.2       1 RET427      0.0000
      6 C6        107.3600  128.1650  116.2350 C.2       1 RET427      0.0000
      7 C7        106.7820  126.8890  116.5970 C.2       1 RET427      0.0000
      8 C8        105.7520  126.7750  117.3790 C.2       1 RET427      0.0000
      9 C9        105.1100  125.5600  117.8030 C.2       1 RET427      0.0000
     10 C10       103.8160  125.6060  118.1880 C.2       1 RET427      0.0000
     11 C11       102.9960  124.5240  118.6430 C.2       1 RET427      0.0000
     12 C12       101.7440  124.7000  119.0290 C.2       1 RET427      0.0000
     13 C13       100.8300  123.6860  119.4970 C.2       1 RET427      0.0000
     14 C14       100.1990  123.8630  120.6780 C.2       1 RET427      0.0000
     15 C15        99.2600  122.9800  121.3170 C.3       1 RET427      0.0000
     16 C16       108.7900  128.7090  114.2640 C.3       1 RET427      0.0000
     17 C17       106.6990  127.4090  113.9120 C.3       1 RET427      0.0000
     18 C18       108.4310  128.9910  118.3440 C.3       1 RET427      0.0000
     19 C19       105.9250  124.3000  117.8120 C.3       1 RET427      0.0000
     20 C20       100.6160  122.4820  118.6270 C.3       1 RET427      0.0000
@<TRIPOS>BOND
     1    1    2 1
     2    1    6 1
     3    1   16 1
     4    1   17 1
     5    2    3 1
     6    3    4 1
     7    4    5 1
     8    5    6 2
     9    5   18 1
    10    6    7 2
    11    7    8 2
    12    8    9 2
    13    9   10 2
    14    9   19 1
    15   10   11 2
    16   11   12 2
    17   12   13 2
    18   13   14 2
    19   13   20 1
    20   14   15 1
@<TRIPOS>SUBSTRUCTURE
     1 RET427      1 RESIDUE           4 R     RET     0 ROOT
