@<TRIPOS>MOLECULE
RET
20 20 1 0 0
SMALL
NO_CHARGES


@<TRIPOS>ATOM
      1 C1        132.9180  152.2260  139.3800 C.3       1 RET427      0.0000
      2 C2        133.3290  153.6130  138.8690 C.3       1 RET427      0.0000
      3 C3        134.2290  154.3710  139.8300 C.3       1 RET427      0.0000
      4 C4        133.5520  154.5230  141.1780 C.3       1 RET427      0.0000
      5 C5        132.9180  153.2580  141.6800 C.2       1 RET427      0.0000
      6 C6        132.4950  152.2850  140.8520 C.2       1 RET427      0.0000
      7 C7        131.9740  151.0220  141.3400 C.2       1 RET427      0.0000
      8 C8        130.7120  150.7940  141.7500 C.2       1 RET427      0.0000
      9 C9        130.1160  149.5620  142.2270 C.2       1 RET427      0.0000
     10 C10       129.1140  149.6380  143.1340 C.2       1 RET427      0.0000
     11 C11       128.3400  148.5690  143.6960 C.2       1 RET427      0.0000
     12 C12       127.0360  148.4590  143.4200 C.2       1 RET427      0.0000
     13 C13       126.0990  147.4650  143.9010 C.2       1 RET427      0.0000
     14 C14       125.3150  147.7650  144.9640 C.2       1 RET427      0.0000
     15 C15       124.3140  146.9400  145.5880 C.3       1 RET427      0.0000
     16 C16       134.1010  151.2700  139.2150 C.3       1 RET427      0.0000
     17 C17       131.7650  151.7290  138.5000 C.3       1 RET427      0.0000
     18 C18       132.8510  153.1900  143.1820 C.3       1 RET427      0.0000
     19 C19       130.6300  148.2640  141.6710 C.3       1 RET427      0.0000
     20 C20       126.0220  146.1560  143.1680 C.3       1 RET427      0.0000
@<TRIPOS>BOND
     1    1    2 1
     2    1    6 1
     3    1   16 1
     4    1   17 1
     5    2    3 1
     6    3    4 1
     7    4    5 1
     8    5    6 2
     9    5   18 1
    10    6    7 2
    11    7    8 2
    12    8    9 2
    13    9   10 2
    14    9   19 1
    15   10   11 2
    16   11   12 2
    17   12   13 2
    18   13   14 2
    19   13   20 1
    20   14   15 1
@<TRIPOS>SUBSTRUCTURE
     1 RET427      1 RESIDUE           4 R     RET     0 ROOT
