@<TRIPOS>MOLECULE
RET
20 20 1 0 0
SMALL
NO_CHARGES


@<TRIPOS>ATOM
      1 C1        128.0150  118.5480  112.7760 C.3       1 RET435      0.0000
      2 C2        126.7060  117.7740  112.3190 C.3       1 RET435      0.0000
      3 C3        126.4800  116.4640  113.0960 C.3       1 RET435      0.0000
      4 C4        127.7000  115.4900  112.9740 C.3       1 RET435      0.0000
      5 C5        129.0900  116.2180  112.7300 C.2       1 RET435      0.0000
      6 C6        129.2640  117.5370  112.9060 C.2       1 RET435      0.0000
      7 C7        130.6580  118.2940  113.3850 C.2       1 RET435      0.0000
      8 C8        131.6320  117.7810  114.2070 C.2       1 RET435      0.0000
      9 C9        132.9980  118.4320  114.7040 C.2       1 RET435      0.0000
     10 C10       134.2290  118.1790  114.1360 C.2       1 RET435      0.0000
     11 C11       135.6160  118.7500  114.5170 C.2       1 RET435      0.0000
     12 C12       136.6290  119.0830  113.6590 C.2       1 RET435      0.0000
     13 C13       138.0110  119.6510  114.0070 C.2       1 RET435      0.0000
     14 C14       139.1550  119.1430  113.4590 C.2       1 RET435      0.0000
     15 C15       140.5810  119.6390  113.7430 C.3       1 RET435      0.0000
     16 C16       127.7820  119.1230  114.2230 C.3       1 RET435      0.0000
     17 C17       128.2290  119.7280  111.7710 C.3       1 RET435      0.0000
     18 C18       129.9820  115.3090  111.8030 C.3       1 RET435      0.0000
     19 C19       132.9420  119.3870  115.9000 C.3       1 RET435      0.0000
     20 C20       138.1270  120.8230  114.9910 C.3       1 RET435      0.0000
@<TRIPOS>BOND
     1    1    2 1
     2    1    6 1
     3    1   16 1
     4    1   17 1
     5    2    3 1
     6    3    4 1
     7    4    5 1
     8    5    6 2
     9    5   18 1
    10    6    7 2
    11    7    8 2
    12    8    9 2
    13    9   10 2
    14    9   19 1
    15   10   11 2
    16   11   12 2
    17   12   13 2
    18   13   14 2
    19   13   20 1
    20   14   15 1
@<TRIPOS>SUBSTRUCTURE
     1 RET435      1 RESIDUE           4 R     RET     0 ROOT
