# created with PyMOL 2.3.5
@<TRIPOS>MOLECULE
RET
49 49 1                 
SMALL
USER_CHARGES
@<TRIPOS>ATOM
1	  C1	-4.327	0.909	-0.480	C.3	1	RET0	0.000	
2	  C2	-5.466	0.132	-1.143	C.3	1	RET0	0.000	
3	  C3	-5.998	-0.901	-0.142	C.3	1	RET0	0.000	
4	  C4	-4.921	-1.966	0.075	C.3	1	RET0	0.000	
5	  C5	-3.604	-1.314	0.380	C.2	1	RET0	0.000	
6	  C6	-3.340	-0.042	0.131	C.2	1	RET0	0.000	
7	  C7	-2.051	0.450	0.458	C.2	1	RET0	0.000	
8	  C8	-0.944	-0.145	-0.059	C.2	1	RET0	0.000	
9	  C9	0.334	0.315	0.300	C.2	1	RET0	0.000	
10	 C10	1.446	-0.283	-0.220	C.2	1	RET0	0.000	
11	 C11	2.720	0.176	0.138	C.2	1	RET0	0.000	
12	 C12	3.842	-0.427	-0.387	C.2	1	RET0	0.000	
13	 C13	5.115	0.031	-0.030	C.2	1	RET0	0.000	
14	 C14	6.238	-0.573	-0.555	C.2	1	RET0	0.000	
15	 C15	7.510	-0.115	-0.198	C.2	1	RET0	0.000	
16	  O1	8.500	-0.648	-0.661	O.2	1	RET0	0.000	
17	 C16	-3.620	1.768	-1.531	C.3	1	RET0	0.000	
18	 C17	-4.899	1.816	0.611	C.3	1	RET0	0.000	
19	 C18	-2.522	-2.155	1.006	C.3	1	RET0	0.000	
20	 C19	0.478	1.469	1.259	C.3	1	RET0	0.000	
21	 C20	5.259	1.185	0.929	C.3	1	RET0	0.000	
22	 H21	-6.266	0.819	-1.419	 H	1	RET0	0.000	
23	 H22	-5.093	-0.377	-2.032	 H	1	RET0	0.000	
24	 H31	-6.225	-0.411	0.804	 H	1	RET0	0.000	
25	 H32	-6.898	-1.368	-0.542	 H	1	RET0	0.000	
26	 H41	-5.209	-2.606	0.910	 H	1	RET0	0.000	
27	 H42	-4.824	-2.572	-0.825	 H	1	RET0	0.000	
28	  H7	-1.949	1.298	1.119	 H	1	RET0	0.000	
29	  H8	-1.047	-0.972	-0.747	 H	1	RET0	0.000	
30	 H10	1.343	-1.109	-0.908	 H	1	RET0	0.000	
31	 H11	2.823	1.003	0.825	 H	1	RET0	0.000	
32	 H12	3.740	-1.254	-1.074	 H	1	RET0	0.000	
33	 H14	6.135	-1.400	-1.242	 H	1	RET0	0.000	
34	 H15	7.613	0.712	0.489	 H	1	RET0	0.000	
35	H161	-4.351	2.401	-2.035	 H	1	RET0	0.000	
36	H162	-2.872	2.394	-1.045	 H	1	RET0	0.000	
37	H163	-3.134	1.122	-2.262	 H	1	RET0	0.000	
38	H171	-5.409	1.209	1.359	 H	1	RET0	0.000	
39	H172	-4.089	2.371	1.084	 H	1	RET0	0.000	
40	H173	-5.608	2.516	0.167	 H	1	RET0	0.000	
41	H181	-2.917	-3.145	1.234	 H	1	RET0	0.000	
42	H182	-1.686	-2.248	0.312	 H	1	RET0	0.000	
43	H183	-2.179	-1.681	1.926	 H	1	RET0	0.000	
44	H191	0.528	1.089	2.279	 H	1	RET0	0.000	
45	H192	1.391	2.019	1.031	 H	1	RET0	0.000	
46	H193	-0.381	2.133	1.160	 H	1	RET0	0.000	
47	H201	5.309	0.805	1.950	 H	1	RET0	0.000	
48	H202	6.172	1.735	0.701	 H	1	RET0	0.000	
49	H203	4.400	1.849	0.830	 H	1	RET0	0.000	
@<TRIPOS>BOND
1 1 2 1
2 1 6 1
3 1 17 1
4 1 18 1
5 2 3 1
6 2 22 1
7 2 23 1
8 3 4 1
9 3 24 1
10 3 25 1
11 4 5 1
12 4 26 1
13 4 27 1
14 5 6 2
15 5 19 1
16 6 7 1
17 7 8 2
18 7 28 1
19 8 9 1
20 8 29 1
21 9 10 2
22 9 20 1
23 10 11 1
24 10 30 1
25 11 12 2
26 11 31 1
27 12 13 1
28 12 32 1
29 13 14 2
30 13 21 1
31 14 15 1
32 14 33 1
33 15 16 2
34 15 34 1
35 17 35 1
36 17 36 1
37 17 37 1
38 18 38 1
39 18 39 1
40 18 40 1
41 19 41 1
42 19 42 1
43 19 43 1
44 20 44 1
45 20 45 1
46 20 46 1
47 21 47 1
48 21 48 1
49 21 49 1
@<TRIPOS>SUBSTRUCTURE
1	RET0	1	GROUP	1 ****	RET
