# created with PyMOL 2.3.5
@<TRIPOS>MOLECULE
MAN
24 24 1                 
SMALL
USER_CHARGES
@<TRIPOS>ATOM
1	  C1	-1.692	-0.156	-0.316	C.3	1	MAN0	0.000	
2	  C2	-0.878	0.091	-1.588	C.3	1	MAN0	0.000	
3	  C3	0.535	-0.467	-1.391	C.3	1	MAN0	0.000	
4	  C4	1.126	0.134	-0.111	C.3	1	MAN0	0.000	
5	  C5	0.160	-0.117	1.048	C.3	1	MAN0	0.000	
6	  C6	0.757	0.448	2.339	C.3	1	MAN0	0.000	
7	  O1	-1.735	-1.558	-0.046	O.3	1	MAN0	0.000	
8	  O2	-0.808	1.494	-1.845	O.3	1	MAN0	0.000	
9	  O3	1.350	-0.113	-2.511	O.3	1	MAN0	0.000	
10	  O4	2.384	-0.482	0.170	O.3	1	MAN0	0.000	
11	  O5	-1.087	0.520	0.784	O.3	1	MAN0	0.000	
12	  O6	-0.142	0.211	3.423	O.3	1	MAN0	0.000	
13	  H1	-2.707	0.216	-0.457	 H	1	MAN0	0.000	
14	  H2	-1.354	-0.410	-2.430	 H	1	MAN0	0.000	
15	  H3	0.491	-1.552	-1.300	 H	1	MAN0	0.000	
16	  H4	1.267	1.207	-0.244	 H	1	MAN0	0.000	
17	  H5	0.002	-1.189	1.162	 H	1	MAN0	0.000	
18	 H61	0.915	1.521	2.226	 H	1	MAN0	0.000	
19	 H62	1.710	-0.039	2.543	 H	1	MAN0	0.000	
20	 HO1	-2.260	-1.672	0.757	 H	1	MAN0	0.000	
21	 HO2	-1.717	1.804	-1.955	 H	1	MAN0	0.000	
22	 HO3	0.934	-0.501	-3.293	 H	1	MAN0	0.000	
23	 HO4	2.958	-0.305	-0.587	 H	1	MAN0	0.000	
24	 HO6	0.270	0.582	4.215	 H	1	MAN0	0.000	
@<TRIPOS>BOND
1 1 2 1
2 1 7 1
3 1 11 1
4 1 13 1
5 2 3 1
6 2 8 1
7 2 14 1
8 3 4 1
9 3 9 1
10 3 15 1
11 4 5 1
12 4 10 1
13 4 16 1
14 5 6 1
15 5 11 1
16 5 17 1
17 6 12 1
18 6 18 1
19 6 19 1
20 7 20 1
21 8 21 1
22 9 22 1
23 10 23 1
24 12 24 1
@<TRIPOS>SUBSTRUCTURE
1	MAN0	1	GROUP	1 ****	MAN
