# created with PyMOL 2.3.5
@<TRIPOS>MOLECULE
8D1
46 48 1 0 0
SMALL
USER_CHARGES


@<TRIPOS>ATOM
      1 C11        -0.6180   -1.3150    0.4150 C.2       1 8D11        0.0000
      2 C13         0.6320   -0.5270    0.4230 C.2       1 8D11        0.0000
      3 C16         4.0620   -0.1240   -0.0490 C.2       1 8D11        0.0000
      4 C17         4.5980   -1.3300   -0.4790 C.2       1 8D11        0.0000
      5 C18         5.9510   -1.4290   -0.7430 C.2       1 8D11        0.0000
      6 C19         6.7700   -0.3270   -0.5790 C.2       1 8D11        0.0000
      7 C20         6.2390    0.8760   -0.1520 C.2       1 8D11        0.0000
      8 C21         7.1360    2.0740    0.0250 C.3       1 8D11        0.0000
      9 C22         4.8880    0.9810    0.1140 C.2       1 8D11        0.0000
     10 C24         0.7580    0.8300    0.7890 C.2       1 8D11        0.0000
     11 C01        -4.3760    0.7560   -3.0700 C.3       1 8D11        0.0000
     12 O02        -3.9320    0.0140   -1.9320 O.3       1 8D11        0.0000
     13 C03        -4.6300    0.1790   -0.7780 C.2       1 8D11        0.0000
     14 C04        -5.7200    1.0370   -0.7410 C.2       1 8D11        0.0000
     15 C05        -6.4280    1.2030    0.4340 C.2       1 8D11        0.0000
     16 C06        -6.0510    0.5140    1.5720 C.2       1 8D11        0.0000
     17 C07        -4.9660   -0.3420    1.5380 C.2       1 8D11        0.0000
     18 C08        -4.2580   -0.5150    0.3650 C.2       1 8D11        0.0000
     19 C09        -3.0760   -1.4490    0.3280 C.3       1 8D11        0.0000
     20 N10        -1.8370   -0.6730    0.4280 N.pl3     1 8D11        0.0000
     21 N12        -0.5680   -2.6180    0.3920 N.2       1 8D11        0.0000
     22 N14         1.8320   -0.9700    0.0940 N.2       1 8D11        0.0000
     23 N15         2.6900   -0.0190    0.2140 N.pl3     1 8D11        0.0000
     24 N23         2.0320    1.1370    0.6550 N.2       1 8D11        0.0000
     25 N25        -0.2660    1.6790    1.2090 N.pl3     1 8D11        0.0000
     26 H1          3.9590   -2.1910   -0.6060 H         1 8D11        0.0000
     27 H2          6.3680   -2.3670   -1.0770 H         1 8D11        0.0000
     28 H3          7.8270   -0.4070   -0.7860 H         1 8D11        0.0000
     29 H4          7.1820    2.6350   -0.9090 H         1 8D11        0.0000
     30 H5          6.7380    2.7130    0.8130 H         1 8D11        0.0000
     31 H6          8.1380    1.7410    0.2980 H         1 8D11        0.0000
     32 H7          4.4740    1.9210    0.4480 H         1 8D11        0.0000
     33 H8         -4.3290    1.8230   -2.8490 H         1 8D11        0.0000
     34 H9         -3.7340    0.5330   -3.9220 H         1 8D11        0.0000
     35 H10        -5.4030    0.4790   -3.3070 H         1 8D11        0.0000
     36 H11        -6.0140    1.5750   -1.6300 H         1 8D11        0.0000
     37 H12        -7.2760    1.8710    0.4630 H         1 8D11        0.0000
     38 H13        -6.6060    0.6450    2.4900 H         1 8D11        0.0000
     39 H14        -4.6740   -0.8780    2.4290 H         1 8D11        0.0000
     40 H15        -3.1370   -2.1450    1.1640 H         1 8D11        0.0000
     41 H16        -3.0810   -2.0060   -0.6090 H         1 8D11        0.0000
     42 H17        -1.8760    0.2940    0.5030 H         1 8D11        0.0000
     43 H18         0.2860   -3.0720    0.4590 H         1 8D11        0.0000
     44 H19        -1.0670    1.3110    1.6130 H         1 8D11        0.0000
     45 H20        -0.1770    2.6390    1.0970 H         1 8D11        0.0000
     46 HN1        -1.4193   -3.1544    0.3044 H         1 8D11        0.0000
@<TRIPOS>BOND
     1   15   16 2
     2   16   17 1
     3   14   15 1
     4   17   18 2
     5   13   14 2
     6   13   18 1
     7   18   19 1
     8    1   21 2
     9   12   13 1
    10   19   20 1
    11    1   20 1
    12    1    2 1
    13    7    8 1
    14   11   12 1
    15    2   22 2
    16   22   23 1
    17    2   10 1
    18    7    9 2
    19    3    9 1
    20    6    7 1
    21    3   23 1
    22   23   24 1
    23    3    4 2
    24   10   24 2
    25   10   25 1
    26    5    6 2
    27    4    5 1
    28    4   26 1
    29    5   27 1
    30    6   28 1
    31    8   29 1
    32    8   30 1
    33    8   31 1
    34    9   32 1
    35   11   33 1
    36   11   34 1
    37   11   35 1
    38   14   36 1
    39   15   37 1
    40   16   38 1
    41   17   39 1
    42   19   40 1
    43   19   41 1
    44   20   42 1
    45   21   43 1
    46   25   44 1
    47   25   45 1
    48   46   21 1
@<TRIPOS>SUBSTRUCTURE
     1 8D11        1 RESIDUE           4 A     8D1     0 ROOT
