# created with PyMOL 2.3.5
@<TRIPOS>MOLECULE
TCE
31 30 1                 
SMALL
USER_CHARGES
@<TRIPOS>ATOM
1	 O16	4.332	1.272	1.022	O.co2	1	TCE0	0.000	
2	 C14	4.334	0.590	0.024	C.2	1	TCE0	0.000	
3	 O15	5.497	0.181	-0.507	O.3	1	TCE0	0.000	
4	  C5	3.031	0.193	-0.620	C.3	1	TCE0	0.000	
5	  C2	1.867	0.780	0.181	C.3	1	TCE0	0.000	
6	   P	0.290	0.301	-0.598	P.3	1	TCE0	0.000	
7	  C3	-0.084	-1.274	0.242	C.3	1	TCE0	0.000	
8	  C6	-1.173	-2.019	-0.533	C.3	1	TCE0	0.000	
9	  C8	-1.482	-3.320	0.161	C.2	1	TCE0	0.000	
10	 O10	-0.892	-3.621	1.172	O.co2	1	TCE0	0.000	
11	  O9	-2.412	-4.146	-0.343	O.3	1	TCE0	0.000	
12	  C1	-0.888	1.443	0.197	C.3	1	TCE0	0.000	
13	  C4	-2.200	1.451	-0.591	C.3	1	TCE0	0.000	
14	 C11	-3.174	2.395	0.066	C.2	1	TCE0	0.000	
15	 O12	-4.399	2.565	-0.456	O.3	1	TCE0	0.000	
16	 O13	-2.852	2.999	1.061	O.co2	1	TCE0	0.000	
17	HO15	6.307	0.457	-0.056	 H	1	TCE0	0.000	
18	  H5	2.999	0.575	-1.640	 H	1	TCE0	0.000	
19	 H5A	2.949	-0.893	-0.636	 H	1	TCE0	0.000	
20	  H2	1.899	0.399	1.202	 H	1	TCE0	0.000	
21	 H2A	1.948	1.867	0.197	 H	1	TCE0	0.000	
22	  H3	0.817	-1.887	0.283	 H	1	TCE0	0.000	
23	 H3A	-0.432	-1.072	1.255	 H	1	TCE0	0.000	
24	  H6	-2.073	-1.406	-0.574	 H	1	TCE0	0.000	
25	 H6A	-0.824	-2.221	-1.546	 H	1	TCE0	0.000	
26	 HO9	-2.576	-4.969	0.137	 H	1	TCE0	0.000	
27	  H1	-1.080	1.115	1.218	 H	1	TCE0	0.000	
28	 H1A	-0.467	2.448	0.211	 H	1	TCE0	0.000	
29	  H4	-2.009	1.779	-1.613	 H	1	TCE0	0.000	
30	 H4A	-2.622	0.446	-0.605	 H	1	TCE0	0.000	
31	HO12	-4.989	3.181	0.001	 H	1	TCE0	0.000	
@<TRIPOS>BOND
1 1 2 2
2 2 3 1
3 2 4 1
4 3 17 1
5 4 5 1
6 4 18 1
7 4 19 1
8 5 6 1
9 5 20 1
10 5 21 1
11 6 12 1
12 6 7 1
13 7 8 1
14 7 22 1
15 7 23 1
16 8 9 1
17 8 24 1
18 8 25 1
19 9 10 2
20 9 11 1
21 11 26 1
22 12 13 1
23 12 27 1
24 12 28 1
25 13 14 1
26 13 29 1
27 13 30 1
28 14 16 2
29 14 15 1
30 15 31 1
@<TRIPOS>SUBSTRUCTURE
1	TCE0	1	GROUP	1 ****	TCE
