# created with PyMOL 2.3.5
@<TRIPOS>MOLECULE
PC1
142 141 1 0 0
SMALL
USER_CHARGES


@<TRIPOS>ATOM
      1 O12        -4.8350   10.1110   -8.7940 O.co2     1 PC11        0.0000
      2 P          -6.1860   10.7740   -8.6290 P.3       1 PC11        0.0000
      3 O14        -6.3340   12.2670   -8.8320 O.co2     1 PC11        0.0000
      4 O13        -7.2750   10.0160   -9.5870 O.3       1 PC11        0.0000
      5 C11        -7.5280    8.6350   -9.3910 C.3       1 PC11        0.0000
      6 C12        -8.5650    8.1610  -10.3900 C.3       1 PC11        0.0000
      7 N          -8.8520    6.7240  -10.1540 N.4       1 PC11        0.0000
      8 C13        -9.3620    6.4980   -8.7240 C.3       1 PC11        0.0000
      9 C14        -9.9230    6.2160  -11.1290 C.3       1 PC11        0.0000
     10 C15        -7.5880    5.8770  -10.3500 C.3       1 PC11        0.0000
     11 O11        -6.7710   10.3710   -7.1570 O.3       1 PC11        0.0000
     12 C1         -8.0410   10.8730   -6.7560 C.3       1 PC11        0.0000
     13 C2         -8.3790   10.3700   -5.3580 C.3       1 PC11        0.0000
     14 O21        -7.3570   10.8000   -4.4560 O.3       1 PC11        0.0000
     15 C21        -7.1880   12.1530   -4.3580 C.2       1 PC11        0.0000
     16 O22        -7.8270   13.0010   -4.9660 O.co2     1 PC11        0.0000
     17 C22        -6.0770   12.4390   -3.3730 C.3       1 PC11        0.0000
     18 C23        -5.8440   13.9390   -3.1920 C.3       1 PC11        0.0000
     19 C24        -4.7480   14.2090   -2.1610 C.3       1 PC11        0.0000
     20 C25        -4.5230   15.6990   -1.8870 C.3       1 PC11        0.0000
     21 C26        -3.4770   15.9680   -0.8020 C.3       1 PC11        0.0000
     22 C27        -3.2710   17.4700   -0.5940 C.3       1 PC11        0.0000
     23 C28        -2.2260   17.8020    0.4760 C.3       1 PC11        0.0000
     24 C29        -1.9310   19.2910    0.6860 C.3       1 PC11        0.0000
     25 C2A        -0.8200   19.5550    1.7050 C.3       1 PC11        0.0000
     26 C2B        -0.5530   21.0550    1.8530 C.3       1 PC11        0.0000
     27 C2C         0.5710   21.3780    2.8430 C.3       1 PC11        0.0000
     28 C2D         0.8190   22.8790    3.0090 C.3       1 PC11        0.0000
     29 C2E         1.9350   23.2020    4.0080 C.3       1 PC11        0.0000
     30 C2F         2.1670   24.7040    4.1950 C.3       1 PC11        0.0000
     31 C2G         3.3370   24.9660    5.1470 C.3       1 PC11        0.0000
     32 C2H         3.6000   26.4540    5.3890 C.3       1 PC11        0.0000
     33 C2I         4.7780   26.7200    6.3140 C.3       1 PC11        0.0000
     34 C3         -8.4360    8.8490   -5.3120 C.3       1 PC11        0.0000
     35 O31        -8.7280    8.4340   -3.9740 O.3       1 PC11        0.0000
     36 C31        -8.8100    7.0840   -3.7800 C.2       1 PC11        0.0000
     37 O32        -8.6580    6.2260   -4.6390 O.co2     1 PC11        0.0000
     38 C32        -9.1240    6.8170   -2.3260 C.3       1 PC11        0.0000
     39 C33        -9.2100    5.3210   -2.0250 C.3       1 PC11        0.0000
     40 C34        -9.4840    5.0690   -0.5410 C.3       1 PC11        0.0000
     41 C35        -9.5090    3.5830   -0.1700 C.3       1 PC11        0.0000
     42 C36        -9.7110    3.3330    1.3270 C.3       1 PC11        0.0000
     43 C37        -9.7590    1.8340    1.6340 C.3       1 PC11        0.0000
     44 C38        -9.9690    1.5210    3.1190 C.3       1 PC11        0.0000
     45 C39       -10.0880    0.0370    3.4800 C.3       1 PC11        0.0000
     46 C3A       -10.3810   -0.2090    4.9620 C.3       1 PC11        0.0000
     47 C3B       -10.5150   -1.7060    5.2570 C.3       1 PC11        0.0000
     48 C3C       -10.8360   -2.0090    6.7240 C.3       1 PC11        0.0000
     49 C3D       -10.9430   -3.5070    7.0220 C.3       1 PC11        0.0000
     50 C3E       -11.2520   -3.8110    8.4920 C.3       1 PC11        0.0000
     51 C3F       -11.3340   -5.3090    8.7980 C.3       1 PC11        0.0000
     52 C3G       -11.7140   -5.5530   10.2610 C.3       1 PC11        0.0000
     53 C3H       -11.7890   -7.0370   10.6290 C.3       1 PC11        0.0000
     54 C3I       -12.1920   -7.2840   12.0740 C.3       1 PC11        0.0000
     55 H111       -7.9050    8.5020   -8.3720 H         1 PC11        0.0000
     56 H112       -6.5870    8.0830   -9.4920 H         1 PC11        0.0000
     57 H121       -8.2100    8.2400  -11.4210 H         1 PC11        0.0000
     58 H122       -9.5120    8.6940  -10.2720 H         1 PC11        0.0000
     59 H131      -10.2220    7.1520   -8.5690 H         1 PC11        0.0000
     60 H132       -9.6450    5.4470   -8.6330 H         1 PC11        0.0000
     61 H133       -8.5500    6.7460   -8.0370 H         1 PC11        0.0000
     62 H141       -9.5510    5.2960  -11.5840 H         1 PC11        0.0000
     63 H142      -10.8340    6.0300  -10.5570 H         1 PC11        0.0000
     64 H143      -10.0830    6.9900  -11.8820 H         1 PC11        0.0000
     65 H151       -7.1380    6.1630  -11.3030 H         1 PC11        0.0000
     66 H152       -6.9120    6.0870   -9.5190 H         1 PC11        0.0000
     67 H153       -7.8870    4.8270  -10.3570 H         1 PC11        0.0000
     68 H11        -7.9990   11.9660   -6.7920 H         1 PC11        0.0000
     69 H12        -8.7750   10.5240   -7.4890 H         1 PC11        0.0000
     70 H2         -9.3190   10.8020   -4.9980 H         1 PC11        0.0000
     71 H221       -5.1610   11.9650   -3.7440 H         1 PC11        0.0000
     72 H222       -6.3490   11.9880   -2.4120 H         1 PC11        0.0000
     73 H231       -5.5720   14.3790   -4.1580 H         1 PC11        0.0000
     74 H232       -6.7780   14.4210   -2.8760 H         1 PC11        0.0000
     75 H241       -3.8080   13.7500   -2.4900 H         1 PC11        0.0000
     76 H242       -5.0200   13.7260   -1.2140 H         1 PC11        0.0000
     77 H251       -4.2310   16.2030   -2.8160 H         1 PC11        0.0000
     78 H252       -5.4800   16.1370   -1.5780 H         1 PC11        0.0000
     79 H261       -3.7960   15.5070    0.1400 H         1 PC11        0.0000
     80 H262       -2.5270   15.5060   -1.0880 H         1 PC11        0.0000
     81 H271       -4.2220   17.9240   -0.2890 H         1 PC11        0.0000
     82 H272       -2.9980   17.9430   -1.5450 H         1 PC11        0.0000
     83 H281       -2.5580   17.3690    1.4280 H         1 PC11        0.0000
     84 H282       -1.2860   17.2970    0.2210 H         1 PC11        0.0000
     85 H291       -2.8450   19.8160    0.9880 H         1 PC11        0.0000
     86 H292       -1.6390   19.7170   -0.2820 H         1 PC11        0.0000
     87 H2A1       -1.1070   19.1380    2.6760 H         1 PC11        0.0000
     88 H2A2        0.0980   19.0470    1.3880 H         1 PC11        0.0000
     89 H2B1       -0.2750   21.4680    0.8750 H         1 PC11        0.0000
     90 H2B2       -1.4720   21.5670    2.1610 H         1 PC11        0.0000
     91 H2C1        1.4910   20.8990    2.4830 H         1 PC11        0.0000
     92 H2C2        0.3350   20.9240    3.8120 H         1 PC11        0.0000
     93 H2D1        1.0960   23.3070    2.0380 H         1 PC11        0.0000
     94 H2D2       -0.1010   23.3820    3.3270 H         1 PC11        0.0000
     95 H2E1        1.7070   22.7380    4.9760 H         1 PC11        0.0000
     96 H2E2        2.8620   22.7380    3.6470 H         1 PC11        0.0000
     97 H2F1        2.3680   25.1600    3.2200 H         1 PC11        0.0000
     98 H2F2        1.2640   25.1750    4.5990 H         1 PC11        0.0000
     99 H2G1        3.1250   24.4940    6.1140 H         1 PC11        0.0000
    100 H2G2        4.2460   24.4920    4.7570 H         1 PC11        0.0000
    101 H2H1        2.7010   26.8970    5.8340 H         1 PC11        0.0000
    102 H2H2        3.7650   26.9640    4.4330 H         1 PC11        0.0000
    103 H2I1        4.8550   27.7920    6.5240 H         1 PC11        0.0000
    104 H2I2        5.7230   26.4030    5.8620 H         1 PC11        0.0000
    105 H2I3        4.6560   26.1960    7.2670 H         1 PC11        0.0000
    106 H31        -7.4760    8.4070   -5.5990 H         1 PC11        0.0000
    107 H32        -9.2250    8.4640   -5.9660 H         1 PC11        0.0000
    108 H321      -10.0800    7.2970   -2.0880 H         1 PC11        0.0000
    109 H322       -8.3340    7.2720   -1.7180 H         1 PC11        0.0000
    110 H331      -10.0030    4.8770   -2.6370 H         1 PC11        0.0000
    111 H332       -8.2720    4.8320   -2.3160 H         1 PC11        0.0000
    112 H341      -10.4350    5.5350   -0.2560 H         1 PC11        0.0000
    113 H342       -8.7020    5.5560    0.0550 H         1 PC11        0.0000
    114 H351      -10.2960    3.0750   -0.7400 H         1 PC11        0.0000
    115 H352       -8.5560    3.1380   -0.4820 H         1 PC11        0.0000
    116 H361       -8.8940    3.7980    1.8910 H         1 PC11        0.0000
    117 H362      -10.6440    3.8020    1.6530 H         1 PC11        0.0000
    118 H371       -8.8130    1.3730    1.3220 H         1 PC11        0.0000
    119 H372      -10.5430    1.3570    1.0350 H         1 PC11        0.0000
    120 H381       -9.1360    1.9570    3.6840 H         1 PC11        0.0000
    121 H382      -10.8760    2.0330    3.4630 H         1 PC11        0.0000
    122 H391       -9.1750   -0.4950    3.1890 H         1 PC11        0.0000
    123 H392      -10.8980   -0.3940    2.8780 H         1 PC11        0.0000
    124 H3A1       -9.5740    0.2120    5.5700 H         1 PC11        0.0000
    125 H3A2      -11.3080    0.3050    5.2440 H         1 PC11        0.0000
    126 H3B1      -11.3190   -2.1230    4.6380 H         1 PC11        0.0000
    127 H3B2       -9.5930   -2.2240    4.9670 H         1 PC11        0.0000
    128 H3C1      -11.7880   -1.5250    6.9730 H         1 PC11        0.0000
    129 H3C2      -10.0700   -1.5510    7.3600 H         1 PC11        0.0000
    130 H3D1      -11.7430   -3.9400    6.4080 H         1 PC11        0.0000
    131 H3D2      -10.0150   -4.0170    6.7400 H         1 PC11        0.0000
    132 H3E1      -10.4940   -3.3430    9.1310 H         1 PC11        0.0000
    133 H3E2      -12.2110   -3.3410    8.7430 H         1 PC11        0.0000
    134 H3F1      -12.0750   -5.7710    8.1360 H         1 PC11        0.0000
    135 H3F2      -10.3690   -5.7870    8.5940 H         1 PC11        0.0000
    136 H3G1      -10.9690   -5.0760   10.9090 H         1 PC11        0.0000
    137 H3G2      -12.6760   -5.0730   10.4780 H         1 PC11        0.0000
    138 H3H1      -10.8020   -7.4860   10.4610 H         1 PC11        0.0000
    139 H3H2      -12.4890   -7.5520    9.9610 H         1 PC11        0.0000
    140 H3I1      -12.1330   -8.3540   12.3020 H         1 PC11        0.0000
    141 H3I2      -13.2190   -6.9610   12.2660 H         1 PC11        0.0000
    142 H3I3      -11.5270   -6.7550   12.7640 H         1 PC11        0.0000
@<TRIPOS>BOND
     1    1    2 1
     2    2    3 2
     3    2    4 1
     4    2   11 1
     5    4    5 1
     6    5    6 1
     7    5   55 1
     8    5   56 1
     9    6    7 1
    10    6   57 1
    11    6   58 1
    12    7    8 1
    13    7    9 1
    14    7   10 1
    15    8   59 1
    16    8   60 1
    17    8   61 1
    18    9   62 1
    19    9   63 1
    20    9   64 1
    21   10   65 1
    22   10   66 1
    23   10   67 1
    24   11   12 1
    25   12   13 1
    26   12   68 1
    27   12   69 1
    28   13   14 1
    29   13   34 1
    30   13   70 1
    31   14   15 1
    32   15   16 2
    33   15   17 1
    34   17   18 1
    35   17   71 1
    36   17   72 1
    37   18   19 1
    38   18   73 1
    39   18   74 1
    40   19   20 1
    41   19   75 1
    42   19   76 1
    43   20   21 1
    44   20   77 1
    45   20   78 1
    46   21   22 1
    47   21   79 1
    48   21   80 1
    49   22   23 1
    50   22   81 1
    51   22   82 1
    52   23   24 1
    53   23   83 1
    54   23   84 1
    55   24   25 1
    56   24   85 1
    57   24   86 1
    58   25   26 1
    59   25   87 1
    60   25   88 1
    61   26   27 1
    62   26   89 1
    63   26   90 1
    64   27   28 1
    65   27   91 1
    66   27   92 1
    67   28   29 1
    68   28   93 1
    69   28   94 1
    70   29   30 1
    71   29   95 1
    72   29   96 1
    73   30   31 1
    74   30   97 1
    75   30   98 1
    76   31   32 1
    77   31   99 1
    78   31  100 1
    79   32   33 1
    80   32  101 1
    81   32  102 1
    82   33  103 1
    83   33  104 1
    84   33  105 1
    85   34   35 1
    86   34  106 1
    87   34  107 1
    88   35   36 1
    89   36   37 2
    90   36   38 1
    91   38   39 1
    92   38  108 1
    93   38  109 1
    94   39   40 1
    95   39  110 1
    96   39  111 1
    97   40   41 1
    98   40  112 1
    99   40  113 1
   100   41   42 1
   101   41  114 1
   102   41  115 1
   103   42   43 1
   104   42  116 1
   105   42  117 1
   106   43   44 1
   107   43  118 1
   108   43  119 1
   109   44   45 1
   110   44  120 1
   111   44  121 1
   112   45   46 1
   113   45  122 1
   114   45  123 1
   115   46   47 1
   116   46  124 1
   117   46  125 1
   118   47   48 1
   119   47  126 1
   120   47  127 1
   121   48   49 1
   122   48  128 1
   123   48  129 1
   124   49   50 1
   125   49  130 1
   126   49  131 1
   127   50   51 1
   128   50  132 1
   129   50  133 1
   130   51   52 1
   131   51  134 1
   132   51  135 1
   133   52   53 1
   134   52  136 1
   135   52  137 1
   136   53   54 1
   137   53  138 1
   138   53  139 1
   139   54  140 1
   140   54  141 1
   141   54  142 1
@<TRIPOS>SUBSTRUCTURE
     1 PC11        1 RESIDUE           4 A     PC1     0 ROOT
