# created with PyMOL 2.3.5
@<TRIPOS>MOLECULE
ML2
33 34 1 0 0
SMALL
USER_CHARGES


@<TRIPOS>ATOM
      1 C2          0.1450   -1.2690   -0.0030 C.2       1 ML21        0.0000
      2 C4         -2.0750   -1.3360   -0.3550 C.2       1 ML21        0.0000
      3 C5         -3.3940   -1.6380   -0.6750 C.2       1 ML21        0.0000
      4 C6         -4.3900   -0.7190   -0.4280 C.2       1 ML21        0.0000
      5 C9         -6.4110    1.0180    0.0210 C.3       1 ML21        0.0000
      6 C12        -0.3190   -0.0870    0.4350 C.2       1 ML21        0.0000
      7 C13         0.4960    1.0310    1.0310 C.3       1 ML21        0.0000
      8 N15         1.7570    3.0580    0.4970 N.pl3     1 ML21        0.0000
      9 C16         2.2760    4.0120   -0.3010 C.2       1 ML21        0.0000
     10 C18         3.0920    5.1300    0.2950 C.3       1 ML21        0.0000
     11 I1          2.1530   -1.8640    0.0440 I         1 ML21        0.0000
     12 N3         -0.8890   -2.0300   -0.4780 N.pl3     1 ML21        0.0000
     13 C7         -4.0900    0.5150    0.1430 C.2       1 ML21        0.0000
     14 O8         -5.0850    1.4110    0.3810 O.3       1 ML21        0.0000
     15 C10        -2.7860    0.8330    0.4680 C.2       1 ML21        0.0000
     16 C11        -1.7690   -0.0910    0.2220 C.2       1 ML21        0.0000
     17 C14         0.9640    1.9710   -0.0830 C.3       1 ML21        0.0000
     18 O17         2.0880    3.9700   -1.4980 O.2       1 ML21        0.0000
     19 H5         -3.6380   -2.5920   -1.1190 H         1 ML21        0.0000
     20 H6         -5.4130   -0.9580   -0.6790 H         1 ML21        0.0000
     21 H91        -7.1070    1.8220    0.2630 H         1 ML21        0.0000
     22 H92        -6.4510    0.8130   -1.0490 H         1 ML21        0.0000
     23 H93        -6.6870    0.1200    0.5730 H         1 ML21        0.0000
     24 H131       -0.1140    1.5870    1.7420 H         1 ML21        0.0000
     25 H132        1.3630    0.6150    1.5430 H         1 ML21        0.0000
     26 H15         1.9080    3.0910    1.4540 H         1 ML21        0.0000
     27 H181        3.1520    5.0000    1.3760 H         1 ML21        0.0000
     28 H182        4.0960    5.1140   -0.1290 H         1 ML21        0.0000
     29 H183        2.6180    6.0850    0.0700 H         1 ML21        0.0000
     30 H3         -0.8000   -2.9220   -0.8470 H         1 ML21        0.0000
     31 H10        -2.5550    1.7910    0.9110 H         1 ML21        0.0000
     32 H141        1.5740    1.4150   -0.7940 H         1 ML21        0.0000
     33 H142        0.0960    2.3870   -0.5950 H         1 ML21        0.0000
@<TRIPOS>BOND
     1    9   10 1
     2    8    9 1
     3    9   18 2
     4    8   17 1
     5    7   17 1
     6    6    7 1
     7    1    6 2
     8    6   16 1
     9    1   11 1
    10    1   12 1
    11   15   16 2
    12   13   15 1
    13    2   16 1
    14   13   14 1
    15    5   14 1
    16    4   13 2
    17    2   12 1
    18    2    3 2
    19    3    4 1
    20    3   19 1
    21    4   20 1
    22    5   21 1
    23    5   22 1
    24    5   23 1
    25    7   24 1
    26    7   25 1
    27    8   26 1
    28   10   27 1
    29   10   28 1
    30   10   29 1
    31   12   30 1
    32   15   31 1
    33   17   32 1
    34   17   33 1
@<TRIPOS>SUBSTRUCTURE
     1 ML21        1 RESIDUE           4 A     ML2     0 ROOT
