@<TRIPOS>MOLECULE
G4C
30 30 1 0 0
SMALL
NO_CHARGES


@<TRIPOS>ATOM
      1 C10        12.9650   18.1880   -2.0120 C.ar      1 G4C453      0.0000
      2 C12        10.9310   17.4820   -0.9360 C.ar      1 G4C453      0.0000
      3 C02         8.7710   14.4940   -5.2140 C.3       1 G4C453      0.0000
      4 C03         9.4170   13.1030   -5.0690 C.3       1 G4C453      0.0000
      5 C05        11.6200   14.3080   -4.1490 C.2       1 G4C453      0.0000
      6 C06        11.1620   15.7620   -4.3350 C.3       1 G4C453      0.0000
      7 C07        11.4960   16.6410   -3.1210 C.ar      1 G4C453      0.0000
      8 C08        12.6620   17.3920   -3.1090 C.ar      1 G4C453      0.0000
      9 C11        12.0970   18.2330   -0.9240 C.ar      1 G4C453      0.0000
     10 C13        10.6280   16.6860   -2.0330 C.ar      1 G4C453      0.0000
     11 C18        11.0020   10.7640   -5.4580 C.ar      1 G4C453      0.0000
     12 O15        12.7020   14.1180   -3.7010 O.2       1 G4C453      0.0000
     13 C16        11.3370   11.7790   -4.2760 C.3       1 G4C453      0.0000
     14 C17        10.7680   11.2330   -2.9990 C.3       1 G4C453      0.0000
     15 C19        10.1000   11.0880   -6.4310 C.ar      1 G4C453      0.0000
     16 C20         9.8130   10.1600   -7.4850 C.ar      1 G4C453      0.0000
     17 C21         8.7920   10.5290   -8.5860 C.3       1 G4C453      0.0000
     18 C22         7.8930    9.3390   -8.9720 C.3       1 G4C453      0.0000
     19 C23         8.5930    8.3640   -9.9310 C.3       1 G4C453      0.0000
     20 C24         9.9550    8.9320  -10.3360 C.3       1 G4C453      0.0000
     21 C26         7.7310    8.1700  -11.1780 C.3       1 G4C453      0.0000
     22 C27        10.4520    8.9300   -7.5160 C.ar      1 G4C453      0.0000
     23 C28        11.3740    8.5970   -6.5220 C.ar      1 G4C453      0.0000
     24 C29        11.6550    9.5040   -5.4920 C.ar      1 G4C453      0.0000
     25 C30         9.3850   12.4230   -6.4250 C.3       1 G4C453      0.0000
     26 N04        10.7950   13.1280   -4.4950 N.am      1 G4C453      0.0000
     27 O01         9.3800   15.1520   -6.2910 O.3       1 G4C453      0.0000
     28 O25         8.7740    7.1320   -9.2930 O.3       1 G4C453      0.0000
     29 CL9        13.7750   17.3350   -4.5030 C         1 G4C453      0.0000
     30 CL4         9.1270   15.7210   -2.0480 C         1 G4C453      0.0000
@<TRIPOS>BOND
     1    1    8 ar
     2    1    9 ar
     3    2    9 ar
     4    2   10 ar
     5    3    4 1
     6    3   27 1
     7    4   25 1
     8    4   26 1
     9    5    6 1
    10    5   12 2
    11    5   26 am
    12    6    7 1
    13    7    8 ar
    14    7   10 ar
    15   11   13 1
    16   11   15 ar
    17   11   24 ar
    18   13   14 1
    19   13   26 1
    20   15   16 ar
    21   15   25 1
    22   16   17 1
    23   16   22 ar
    24   17   18 1
    25   18   19 1
    26   19   20 1
    27   19   21 1
    28   19   28 1
    29   22   23 ar
    30   23   24 ar
@<TRIPOS>SUBSTRUCTURE
     1 G4C453      1 RESIDUE           4 R     G4C     0 ROOT
