# created with PyMOL 2.3.5
@<TRIPOS>MOLECULE
ON3
72 76 1                 
SMALL
USER_CHARGES
@<TRIPOS>ATOM
1	  C1	-2.415	-1.976	0.034	C.2	1	ON30	0.000	
2	  C2	-3.181	-2.309	-1.066	C.2	1	ON30	0.000	
3	  C3	-4.557	-2.438	-0.942	C.2	1	ON30	0.000	
4	  C4	-5.163	-2.232	0.289	C.2	1	ON30	0.000	
5	  C5	-4.391	-1.897	1.391	C.2	1	ON30	0.000	
6	  C6	-3.016	-1.770	1.261	C.2	1	ON30	0.000	
7	  C9	-6.657	-2.370	0.427	C.3	1	ON30	0.000	
8	 C13	-4.620	-2.963	-3.259	C.3	1	ON30	0.000	
9	 O17	-5.311	-2.766	-2.024	O.3	1	ON30	0.000	
10	 O18	-4.982	-1.694	2.598	O.3	1	ON30	0.000	
11	 C19	-4.126	-1.352	3.690	C.3	1	ON30	0.000	
12	 C23	-0.920	-1.843	-0.103	C.3	1	ON30	0.000	
13	 O25	-0.431	-2.855	-0.986	O.3	1	ON30	0.000	
14	 C27	-0.581	-0.464	-0.672	C.3	1	ON30	0.000	
15	 O29	-1.005	0.547	0.245	O.3	1	ON30	0.000	
16	 C30	-1.320	1.797	-0.373	C.3	1	ON30	0.000	
17	 C31	-1.082	2.967	0.605	C.3	1	ON30	0.000	
18	 C32	-2.833	1.901	-0.660	C.3	1	ON30	0.000	
19	 C38	-2.170	3.972	0.292	C.2	1	ON30	0.000	
20	 C39	-3.179	3.358	-0.437	C.2	1	ON30	0.000	
21	 C40	-4.284	4.090	-0.835	C.2	1	ON30	0.000	
22	 C41	-4.385	5.429	-0.511	C.2	1	ON30	0.000	
23	 C42	-3.380	6.041	0.215	C.2	1	ON30	0.000	
24	 C43	-2.273	5.314	0.617	C.2	1	ON30	0.000	
25	 C48	0.931	-0.357	-0.884	C.3	1	ON30	0.000	
26	 O51	1.605	-0.650	0.342	O.3	1	ON30	0.000	
27	 C52	5.728	-0.497	0.293	C.2	1	ON30	0.000	
28	 C53	5.063	-0.821	1.461	C.2	1	ON30	0.000	
29	 C54	3.683	-0.873	1.480	C.2	1	ON30	0.000	
30	 C55	2.964	-0.600	0.326	C.2	1	ON30	0.000	
31	 C56	3.633	-0.275	-0.845	C.2	1	ON30	0.000	
32	 C57	5.013	-0.224	-0.859	C.2	1	ON30	0.000	
33	 C62	7.234	-0.435	0.277	C.3	1	ON30	0.000	
34	 C63	7.968	-0.749	1.582	C.3	1	ON30	0.000	
35	 C64	7.996	-1.753	0.426	C.3	1	ON30	0.000	
36	 C69	7.831	0.616	-0.622	C.2	1	ON30	0.000	
37	 O70	8.852	1.177	-0.300	O.co2	1	ON30	0.000	
38	 O71	7.229	0.930	-1.780	O.3	1	ON30	0.000	
39	  H1	-2.709	-2.470	-2.024	 H	1	ON30	0.000	
40	  H2	-2.414	-1.513	2.120	 H	1	ON30	0.000	
41	  H3	-6.904	-3.401	0.683	 H	1	ON30	0.000	
42	  H4	-7.012	-1.705	1.214	 H	1	ON30	0.000	
43	  H5	-7.135	-2.106	-0.516	 H	1	ON30	0.000	
44	  H6	-5.337	-3.219	-4.039	 H	1	ON30	0.000	
45	  H7	-4.096	-2.048	-3.533	 H	1	ON30	0.000	
46	  H8	-3.901	-3.774	-3.147	 H	1	ON30	0.000	
47	  H9	-4.723	-1.218	4.591	 H	1	ON30	0.000	
48	 H10	-3.403	-2.152	3.849	 H	1	ON30	0.000	
49	 H11	-3.599	-0.426	3.462	 H	1	ON30	0.000	
50	 H12	-0.454	-1.958	0.875	 H	1	ON30	0.000	
51	 H13	-0.804	-2.814	-1.877	 H	1	ON30	0.000	
52	 H14	-1.092	-0.328	-1.625	 H	1	ON30	0.000	
53	 H15	-0.742	1.931	-1.287	 H	1	ON30	0.000	
54	 H16	-1.169	2.623	1.635	 H	1	ON30	0.000	
55	 H17	-0.099	3.407	0.436	 H	1	ON30	0.000	
56	 H18	-3.043	1.616	-1.691	 H	1	ON30	0.000	
57	 H19	-3.393	1.268	0.029	 H	1	ON30	0.000	
58	 H20	-5.070	3.613	-1.403	 H	1	ON30	0.000	
59	 H21	-5.248	5.997	-0.824	 H	1	ON30	0.000	
60	 H22	-3.458	7.087	0.469	 H	1	ON30	0.000	
61	 H23	-1.490	5.796	1.183	 H	1	ON30	0.000	
62	 H24	1.242	-1.069	-1.649	 H	1	ON30	0.000	
63	 H25	1.183	0.654	-1.204	 H	1	ON30	0.000	
64	 H26	5.623	-1.034	2.360	 H	1	ON30	0.000	
65	 H27	3.164	-1.127	2.393	 H	1	ON30	0.000	
66	 H28	3.075	-0.062	-1.745	 H	1	ON30	0.000	
67	 H29	5.535	0.029	-1.770	 H	1	ON30	0.000	
68	 H30	8.883	-0.196	1.791	 H	1	ON30	0.000	
69	 H31	7.361	-1.001	2.452	 H	1	ON30	0.000	
70	 H32	7.409	-2.665	0.537	 H	1	ON30	0.000	
71	 H33	8.931	-1.859	-0.125	 H	1	ON30	0.000	
72	 H34	7.650	1.611	-2.323	 H	1	ON30	0.000	
@<TRIPOS>BOND
1 8 9 1
2 3 9 1
3 22 23 2
4 23 24 1
5 4 7 1
6 21 22 1
7 19 24 2
8 3 4 2
9 2 3 1
10 4 5 1
11 20 21 2
12 1 2 2
13 19 20 1
14 17 19 1
15 18 20 1
16 5 10 1
17 5 6 2
18 10 11 1
19 1 6 1
20 1 12 1
21 16 17 1
22 34 35 1
23 33 34 1
24 16 18 1
25 33 35 1
26 15 16 1
27 14 15 1
28 12 14 1
29 12 13 1
30 27 33 1
31 33 36 1
32 27 28 2
33 28 29 1
34 14 25 1
35 27 32 1
36 29 30 2
37 31 32 2
38 36 37 2
39 30 31 1
40 26 30 1
41 36 38 1
42 25 26 1
43 2 39 1
44 6 40 1
45 7 41 1
46 7 42 1
47 7 43 1
48 8 44 1
49 8 45 1
50 8 46 1
51 11 47 1
52 11 48 1
53 11 49 1
54 12 50 1
55 13 51 1
56 14 52 1
57 16 53 1
58 17 54 1
59 17 55 1
60 18 56 1
61 18 57 1
62 21 58 1
63 22 59 1
64 23 60 1
65 24 61 1
66 25 62 1
67 25 63 1
68 28 64 1
69 29 65 1
70 31 66 1
71 32 67 1
72 34 68 1
73 34 69 1
74 35 70 1
75 35 71 1
76 38 72 1
@<TRIPOS>SUBSTRUCTURE
1	ON30	1	GROUP	1 ****	ON3
