# created with PyMOL 2.3.5
@<TRIPOS>MOLECULE
LDA
47 46 1 0 0
SMALL
USER_CHARGES


@<TRIPOS>ATOM
      1 N1         -5.9130   -0.0900   -0.0030 N.4       1 LDA1        0.0000
      2 O1         -5.9940   -0.8590    1.2390 O         1 LDA1        0.0000
      3 CM1        -7.0870    0.7860   -0.1140 C.3       1 LDA1        0.0000
      4 CM2        -5.8780   -1.0100   -1.1470 C.3       1 LDA1        0.0000
      5 C1         -4.6920    0.7270    0.0060 C.3       1 LDA1        0.0000
      6 C2         -3.4660   -0.1880   -0.0030 C.3       1 LDA1        0.0000
      7 C3         -2.1940    0.6630    0.0060 C.3       1 LDA1        0.0000
      8 C4         -0.9680   -0.2520   -0.0040 C.3       1 LDA1        0.0000
      9 C5          0.3040    0.5980    0.0060 C.3       1 LDA1        0.0000
     10 C6          1.5300   -0.3170   -0.0040 C.3       1 LDA1        0.0000
     11 C7          2.8010    0.5340    0.0050 C.3       1 LDA1        0.0000
     12 C8          4.0270   -0.3810   -0.0040 C.3       1 LDA1        0.0000
     13 C9          5.2990    0.4700    0.0050 C.3       1 LDA1        0.0000
     14 C10         6.5250   -0.4460   -0.0050 C.3       1 LDA1        0.0000
     15 C11         7.7970    0.4050    0.0050 C.3       1 LDA1        0.0000
     16 C12         9.0230   -0.5100   -0.0050 C.3       1 LDA1        0.0000
     17 HM11       -7.0260    1.3590   -1.0390 H         1 LDA1        0.0000
     18 HM12       -7.9930    0.1800   -0.1210 H         1 LDA1        0.0000
     19 HM13       -7.1130    1.4690    0.7350 H         1 LDA1        0.0000
     20 HM21       -5.0060   -1.6590   -1.0650 H         1 LDA1        0.0000
     21 HM22       -6.7830   -1.6160   -1.1540 H         1 LDA1        0.0000
     22 HM23       -5.8170   -0.4370   -2.0730 H         1 LDA1        0.0000
     23 H11        -4.6760    1.3470    0.9030 H         1 LDA1        0.0000
     24 H12        -4.6750    1.3660   -0.8770 H         1 LDA1        0.0000
     25 H21        -3.4820   -0.8070   -0.9000 H         1 LDA1        0.0000
     26 H22        -3.4820   -0.8270    0.8800 H         1 LDA1        0.0000
     27 H31        -2.1780    1.2820    0.9030 H         1 LDA1        0.0000
     28 H32        -2.1780    1.3020   -0.8770 H         1 LDA1        0.0000
     29 H41        -0.9840   -0.8720   -0.9010 H         1 LDA1        0.0000
     30 H42        -0.9840   -0.8910    0.8790 H         1 LDA1        0.0000
     31 H51         0.3200    1.2180    0.9030 H         1 LDA1        0.0000
     32 H52         0.3200    1.2370   -0.8770 H         1 LDA1        0.0000
     33 H61         1.5140   -0.9360   -0.9010 H         1 LDA1        0.0000
     34 H62         1.5130   -0.9550    0.8790 H         1 LDA1        0.0000
     35 H71         2.8170    1.1530    0.9020 H         1 LDA1        0.0000
     36 H72         2.8180    1.1730   -0.8780 H         1 LDA1        0.0000
     37 H81         4.0110   -1.0010   -0.9010 H         1 LDA1        0.0000
     38 H82         4.0110   -1.0200    0.8790 H         1 LDA1        0.0000
     39 H91         5.3150    1.0890    0.9020 H         1 LDA1        0.0000
     40 H92         5.3150    1.1080   -0.8780 H         1 LDA1        0.0000
     41 H101        6.5090   -1.0650   -0.9010 H         1 LDA1        0.0000
     42 H102        6.5090   -1.0840    0.8790 H         1 LDA1        0.0000
     43 H111        7.8130    1.0250    0.9020 H         1 LDA1        0.0000
     44 H112        7.8130    1.0440   -0.8780 H         1 LDA1        0.0000
     45 H121        9.9290    0.0960    0.0020 H         1 LDA1        0.0000
     46 H122        9.0060   -1.1490    0.8780 H         1 LDA1        0.0000
     47 H123        9.0070   -1.1290   -0.9020 H         1 LDA1        0.0000
@<TRIPOS>BOND
     1    1    2 1
     2    1    3 1
     3    1    4 1
     4    1    5 1
     5    3   17 1
     6    3   18 1
     7    3   19 1
     8    4   20 1
     9    4   21 1
    10    4   22 1
    11    5    6 1
    12    5   23 1
    13    5   24 1
    14    6    7 1
    15    6   25 1
    16    6   26 1
    17    7    8 1
    18    7   27 1
    19    7   28 1
    20    8    9 1
    21    8   29 1
    22    8   30 1
    23    9   10 1
    24    9   31 1
    25    9   32 1
    26   10   11 1
    27   10   33 1
    28   10   34 1
    29   11   12 1
    30   11   35 1
    31   11   36 1
    32   12   13 1
    33   12   37 1
    34   12   38 1
    35   13   14 1
    36   13   39 1
    37   13   40 1
    38   14   15 1
    39   14   41 1
    40   14   42 1
    41   15   16 1
    42   15   43 1
    43   15   44 1
    44   16   45 1
    45   16   46 1
    46   16   47 1
@<TRIPOS>SUBSTRUCTURE
     1 LDA1        1 RESIDUE           4 A     LDA     0 ROOT
