# created with PyMOL 2.3.5
@<TRIPOS>MOLECULE
5EH
42 44 1                 
SMALL
USER_CHARGES
@<TRIPOS>ATOM
1	 C01	4.329	-0.055	0.733	C.3	1	5EH0	0.000	
2	 N02	4.161	-1.390	0.142	N.3	1	5EH0	0.000	
3	 C03	4.986	-2.383	0.842	C.3	1	5EH0	0.000	
4	 C04	2.747	-1.789	0.138	C.3	1	5EH0	0.000	
5	 C05	1.961	-0.873	-0.803	C.3	1	5EH0	0.000	
6	 C06	0.511	-1.283	-0.808	C.2	1	5EH0	0.000	
7	 C07	-0.442	-0.375	-0.561	C.2	1	5EH0	0.000	
8	 C08	-0.078	1.058	-0.463	C.2	1	5EH0	0.000	
9	 C09	0.831	1.536	-1.419	C.2	1	5EH0	0.000	
10	 C10	1.235	2.851	-1.410	C.2	1	5EH0	0.000	
11	 C11	0.737	3.709	-0.445	C.2	1	5EH0	0.000	
12	 C12	-0.157	3.244	0.494	C.2	1	5EH0	0.000	
13	 C13	-0.579	1.915	0.500	C.2	1	5EH0	0.000	
14	 C14	-1.563	1.563	1.584	C.3	1	5EH0	0.000	
15	 O15	-1.791	0.187	1.751	O.3	1	5EH0	0.000	
16	 C16	-2.458	-0.518	0.817	C.2	1	5EH0	0.000	
17	 C17	-3.760	-0.945	1.044	C.2	1	5EH0	0.000	
18	 C18	-4.434	-1.640	0.057	C.2	1	5EH0	0.000	
19	 C19	-3.826	-1.915	-1.155	C.2	1	5EH0	0.000	
20	 C20	-2.525	-1.506	-1.387	C.2	1	5EH0	0.000	
21	 C21	-1.846	-0.817	-0.397	C.2	1	5EH0	0.000	
22	 H01	5.374	0.245	0.660	 H	1	5EH0	0.000	
23	H01A	3.707	0.661	0.196	 H	1	5EH0	0.000	
24	H01B	4.030	-0.082	1.781	 H	1	5EH0	0.000	
25	 H03	4.646	-2.476	1.874	 H	1	5EH0	0.000	
26	H03A	4.897	-3.347	0.342	 H	1	5EH0	0.000	
27	H03B	6.028	-2.062	0.831	 H	1	5EH0	0.000	
28	 H04	2.662	-2.820	-0.205	 H	1	5EH0	0.000	
29	H04A	2.343	-1.707	1.147	 H	1	5EH0	0.000	
30	 H05	2.046	0.158	-0.461	 H	1	5EH0	0.000	
31	H05A	2.365	-0.956	-1.812	 H	1	5EH0	0.000	
32	 H06	0.241	-2.309	-1.010	 H	1	5EH0	0.000	
33	 H09	1.219	0.864	-2.170	 H	1	5EH0	0.000	
34	 H10	1.935	3.211	-2.149	 H	1	5EH0	0.000	
35	 H11	1.048	4.742	-0.429	 H	1	5EH0	0.000	
36	 H12	-0.538	3.924	1.242	 H	1	5EH0	0.000	
37	 H14	-1.196	1.967	2.527	 H	1	5EH0	0.000	
38	H14A	-2.514	2.043	1.355	 H	1	5EH0	0.000	
39	 H17	-4.243	-0.735	1.987	 H	1	5EH0	0.000	
40	 H18	-5.446	-1.972	0.234	 H	1	5EH0	0.000	
41	 H19	-4.368	-2.450	-1.921	 H	1	5EH0	0.000	
42	 H20	-2.044	-1.720	-2.330	 H	1	5EH0	0.000	
@<TRIPOS>BOND
1 1 2 1
2 2 3 1
3 2 4 1
4 4 5 1
5 5 6 1
6 6 7 2
7 7 8 1
8 7 21 1
9 8 9 2
10 8 13 1
11 9 10 1
12 10 11 2
13 11 12 1
14 12 13 2
15 13 14 1
16 14 15 1
17 15 16 1
18 16 17 2
19 16 21 1
20 17 18 1
21 18 19 2
22 19 20 1
23 20 21 2
24 1 22 1
25 1 23 1
26 1 24 1
27 3 25 1
28 3 26 1
29 3 27 1
30 4 28 1
31 4 29 1
32 5 30 1
33 5 31 1
34 6 32 1
35 9 33 1
36 10 34 1
37 11 35 1
38 12 36 1
39 14 37 1
40 14 38 1
41 17 39 1
42 18 40 1
43 19 41 1
44 20 42 1
@<TRIPOS>SUBSTRUCTURE
1	5EH0	1	GROUP	1 ****	5EH
