# created with PyMOL 2.3.5
@<TRIPOS>MOLECULE
H8M
50 53 1 0 0
SMALL
USER_CHARGES


@<TRIPOS>ATOM
      1 H01        -0.2450   -1.6800   -0.0030 H         1 H8M1        0.0000
      2 CAA         6.4280    2.1240    0.9490 C.3       1 H8M1        0.0000
      3 CAB         5.3090   -1.7660   -1.4910 C.3       1 H8M1        0.0000
      4 CAC        -7.7920   -0.5470   -0.1210 C.3       1 H8M1        0.0000
      5 CAE         2.4460    1.9620    0.0480 C.2       1 H8M1        0.0000
      6 CAF         3.7950    1.9930    0.3480 C.2       1 H8M1        0.0000
      7 CAG        -6.2170    1.2540   -0.8180 C.2       1 H8M1        0.0000
      8 CAH        -4.9700    1.8430   -0.9330 C.2       1 H8M1        0.0000
      9 CAI        -5.3550   -0.6880    0.3270 C.2       1 H8M1        0.0000
     10 CAJ        -0.9650   -1.6070    1.9450 C.3       1 H8M1        0.0000
     11 CAK        -2.3730   -1.8160    1.3710 C.3       1 H8M1        0.0000
     12 CAL         0.3780    0.7510   -0.6720 C.3       1 H8M1        0.0000
     13 CAQ        -6.4010    0.0250   -0.2060 C.2       1 H8M1        0.0000
     14 CAR         1.8490    0.7790   -0.3450 C.2       1 H8M1        0.0000
     15 CAS         2.5990   -0.3800   -0.4390 C.2       1 H8M1        0.0000
     16 CAT         4.5530    0.8360    0.2560 C.2       1 H8M1        0.0000
     17 CAU        -2.7710   -0.5580    0.6430 C.2       1 H8M1        0.0000
     18 CAV         3.9530   -0.3550   -0.1400 C.2       1 H8M1        0.0000
     19 CAW        -1.8910    0.4040    0.2790 C.2       1 H8M1        0.0000
     20 CAX        -3.8890    1.1400   -0.4060 C.2       1 H8M1        0.0000
     21 CAY        -4.0820   -0.1210    0.2160 C.2       1 H8M1        0.0000
     22 CAZ        -0.4110    0.3150    0.5650 C.3       1 H8M1        0.0000
     23 NAM        -0.0820   -1.0820    0.8940 N.3       1 H8M1        0.0000
     24 NAN        -2.5540    1.4230   -0.3480 N.pl3     1 H8M1        0.0000
     25 OAO         5.8800    0.8660    0.5510 O.3       1 H8M1        0.0000
     26 OAP         4.6920   -1.4930   -0.2310 O.3       1 H8M1        0.0000
     27 CLAD        1.8460   -1.8640   -0.9320 Cl        1 H8M1        0.0000
     28 H1          6.2900    2.8510    0.1490 H         1 H8M1        0.0000
     29 H2          5.9210    2.4730    1.8490 H         1 H8M1        0.0000
     30 H3          7.4920    2.0080    1.1550 H         1 H8M1        0.0000
     31 H4          4.5420   -1.8520   -2.2600 H         1 H8M1        0.0000
     32 H5          5.9890   -0.9530   -1.7460 H         1 H8M1        0.0000
     33 H6          5.8670   -2.7000   -1.4280 H         1 H8M1        0.0000
     34 H7         -8.2670   -0.2140    0.8020 H         1 H8M1        0.0000
     35 H8         -8.3780   -0.2060   -0.9750 H         1 H8M1        0.0000
     36 H9         -7.7380   -1.6360   -0.1300 H         1 H8M1        0.0000
     37 H10         1.8560    2.8640    0.1240 H         1 H8M1        0.0000
     38 H11         4.2590    2.9190    0.6550 H         1 H8M1        0.0000
     39 H12        -7.0770    1.7720   -1.2160 H         1 H8M1        0.0000
     40 H13        -4.8400    2.8030   -1.4100 H         1 H8M1        0.0000
     41 H14        -5.5090   -1.6410    0.8100 H         1 H8M1        0.0000
     42 H15        -1.0100   -0.8970    2.7700 H         1 H8M1        0.0000
     43 H16        -0.5740   -2.5590    2.3050 H         1 H8M1        0.0000
     44 H17        -2.3670   -2.6570    0.6780 H         1 H8M1        0.0000
     45 H18        -3.0760   -2.0110    2.1810 H         1 H8M1        0.0000
     46 H19         0.0550    1.7460   -0.9760 H         1 H8M1        0.0000
     47 H20         0.2000    0.0460   -1.4840 H         1 H8M1        0.0000
     48 H21        -0.1610    0.9610    1.4060 H         1 H8M1        0.0000
     49 H22         0.8880   -1.1720    1.1580 H         1 H8M1        0.0000
     50 H24        -2.1380    2.2260   -0.7000 H         1 H8M1        0.0000
@<TRIPOS>BOND
     1    2   28 1
     2    2   29 1
     3    2   30 1
     4    3   31 1
     5    3   32 1
     6    3   33 1
     7    4   13 1
     8    4   34 1
     9    4   35 1
    10    4   36 1
    11    5    6 2
    12    5   14 1
    13    5   37 1
    14    6   16 1
    15    6   38 1
    16    7    8 1
    17    7   39 1
    18    8   40 1
    19    9   13 1
    20    9   21 2
    21    9   41 1
    22   10   23 1
    23   10   42 1
    24   10   43 1
    25   10   11 1
    26   11   17 1
    27   11   44 1
    28   11   45 1
    29   12   14 1
    30   12   46 1
    31   12   47 1
    32    7   13 2
    33   14   15 2
    34   15   18 1
    35   15   27 1
    36   16   18 2
    37   16   25 1
    38   17   19 2
    39   17   21 1
    40   18   26 1
    41   19   22 1
    42   19   24 1
    43    8   20 2
    44   20   24 1
    45   20   21 1
    46   12   22 1
    47   22   48 1
    48    1   23 1
    49   22   23 1
    50   23   49 1
    51   24   50 1
    52    2   25 1
    53    3   26 1
@<TRIPOS>SUBSTRUCTURE
     1 H8M1        1 RESIDUE           4 A     H8M     0 ROOT
