# created with PyMOL 2.3.5
@<TRIPOS>MOLECULE
H8D
51 54 1 0 0
SMALL
USER_CHARGES


@<TRIPOS>ATOM
      1 H01         0.6380   -2.8810    1.0160 H         1 H8D1        0.0000
      2 C4          3.8630    2.9450   -0.1470 C.2       1 H8D1        0.0000
      3 C14        -1.2320   -1.3140    0.3240 C.3       1 H8D1        0.0000
      4 C5          2.5160    3.2040   -0.3720 C.2       1 H8D1        0.0000
      5 C6          1.8400    0.9240   -0.0870 C.2       1 H8D1        0.0000
      6 C11         1.6270   -1.6140   -0.2590 C.3       1 H8D1        0.0000
      7 C7          3.7920   -0.6340    0.4360 C.2       1 H8D1        0.0000
      8 C8          5.0950   -0.4090    0.5740 C.2       1 H8D1        0.0000
      9 C9          0.9820   -0.2750   -0.0180 C.2       1 H8D1        0.0000
     10 C10        -0.3050   -0.1310    0.2450 C.2       1 H8D1        0.0000
     11 C12         1.2330   -3.9560   -0.6750 C.3       1 H8D1        0.0000
     12 C13        -0.6490   -2.4440   -0.5330 C.3       1 H8D1        0.0000
     13 N1          5.3730    0.9360    0.3840 N.pl3     1 H8D1        0.0000
     14 N2          0.7100   -2.7290   -0.0610 N.3       1 H8D1        0.0000
     15 C3          3.2100    0.6690    0.1390 C.2       1 H8D1        0.0000
     16 N3         -3.2890    0.0570    0.3960 N.pl3     1 H8D1        0.0000
     17 C1          4.2280    1.6250    0.1170 C.2       1 H8D1        0.0000
     18 C15         2.8980   -1.8390    0.5710 C.3       1 H8D1        0.0000
     19 C16        -2.5910   -0.9290   -0.2000 C.2       1 H8D1        0.0000
     20 C19        -4.6110    0.4320   -0.1140 C.3       1 H8D1        0.0000
     21 C2          1.5150    2.2350   -0.3480 C.2       1 H8D1        0.0000
     22 C20        -5.4310    1.0660    1.0110 C.3       1 H8D1        0.0000
     23 C21        -5.6970    0.0230    2.0990 C.3       1 H8D1        0.0000
     24 C22        -4.4510    1.4360   -1.2570 C.3       1 H8D1        0.0000
     25 O1         -3.0570   -1.5070   -1.1600 O.2       1 H8D1        0.0000
     26 O2         -3.8840    2.6460   -0.7520 O.3       1 H8D1        0.0000
     27 H1          4.5990    3.7340   -0.1800 H         1 H8D1        0.0000
     28 H2         -1.3180   -1.6450    1.3590 H         1 H8D1        0.0000
     29 H3          2.2260    4.2240   -0.5790 H         1 H8D1        0.0000
     30 H4          1.9330   -1.6370   -1.3050 H         1 H8D1        0.0000
     31 H5          5.8320   -1.1660    0.7980 H         1 H8D1        0.0000
     32 H7         -0.7010    0.8600    0.4080 H         1 H8D1        0.0000
     33 H9          2.1920   -4.2080   -0.2220 H         1 H8D1        0.0000
     34 H10         0.5290   -4.7730   -0.5120 H         1 H8D1        0.0000
     35 H11         1.3660   -3.7990   -1.7450 H         1 H8D1        0.0000
     36 H12        -1.2670   -3.3360   -0.4330 H         1 H8D1        0.0000
     37 H13        -0.6180   -2.1340   -1.5770 H         1 H8D1        0.0000
     38 H14         6.2580    1.3300    0.4330 H         1 H8D1        0.0000
     39 H16        -2.9170    0.5200    1.1630 H         1 H8D1        0.0000
     40 H17         2.6500   -1.9920    1.6220 H         1 H8D1        0.0000
     41 H18         3.4130   -2.7200    0.1870 H         1 H8D1        0.0000
     42 H19        -5.1240   -0.4570   -0.4810 H         1 H8D1        0.0000
     43 H20         0.4880    2.5120   -0.5340 H         1 H8D1        0.0000
     44 H21        -4.8770    1.9020    1.4380 H         1 H8D1        0.0000
     45 H22        -6.3790    1.4250    0.6120 H         1 H8D1        0.0000
     46 H23        -6.2510   -0.8130    1.6720 H         1 H8D1        0.0000
     47 H24        -4.7480   -0.3350    2.4980 H         1 H8D1        0.0000
     48 H25        -6.2810    0.4750    2.9000 H         1 H8D1        0.0000
     49 H26        -3.7930    1.0170   -2.0190 H         1 H8D1        0.0000
     50 H27        -5.4260    1.6470   -1.6950 H         1 H8D1        0.0000
     51 H28        -3.7530    3.3300   -1.4230 H         1 H8D1        0.0000
@<TRIPOS>BOND
     1    2    4 2
     2    2   27 1
     3    3   19 1
     4    3   28 1
     5    4   21 1
     6    4   29 1
     7    5    9 1
     8    5   21 2
     9    6    9 1
    10    6   14 1
    11    6   30 1
    12    7   15 1
    13    7    8 2
    14    8   13 1
    15    8   31 1
    16    9   10 2
    17    3   10 1
    18   10   32 1
    19   11   14 1
    20   11   33 1
    21   11   34 1
    22   11   35 1
    23    3   12 1
    24   12   36 1
    25   12   37 1
    26   13   17 1
    27   13   38 1
    28    1   14 1
    29   12   14 1
    30    5   15 1
    31   16   20 1
    32   16   39 1
    33    2   17 1
    34   15   17 2
    35    6   18 1
    36    7   18 1
    37   18   40 1
    38   18   41 1
    39   16   19 1
    40   19   25 2
    41   20   24 1
    42   20   42 1
    43   21   43 1
    44   20   22 1
    45   22   44 1
    46   22   45 1
    47   22   23 1
    48   23   46 1
    49   23   47 1
    50   23   48 1
    51   24   26 1
    52   24   49 1
    53   24   50 1
    54   26   51 1
@<TRIPOS>SUBSTRUCTURE
     1 H8D1        1 RESIDUE           4 A     H8D     0 ROOT
