@<TRIPOS>MOLECULE
NZZ
11 10 1 0 0
SMALL
NO_CHARGES


@<TRIPOS>ATOM
      1 CAA         8.4370   51.3660   33.1340 C.3       1 NZZ429      0.0000
      2 CAB         7.5220   50.1610   33.3350 C.2       1 NZZ429      0.0000
      3 CAE         6.0060   50.3590   33.4250 C.3       1 NZZ429      0.0000
      4 CAC         8.0630   48.9270   33.4290 C.2       1 NZZ429      0.0000
      5 CAF         7.0740   47.7790   33.6330 C.3       1 NZZ429      0.0000
      6 CAG         7.8110   46.6080   34.2810 C.3       1 NZZ429      0.0000
      7 CAH         6.8340   45.4590   34.5310 C.2       1 NZZ429      0.0000
      8 CAD         5.6310   45.6750   35.4430 C.3       1 NZZ429      0.0000
      9 CAI         7.0330   44.2520   33.9580 C.2       1 NZZ429      0.0000
     10 CAJ         8.2700   44.1410   33.0670 C.3       1 NZZ429      0.0000
     11 OAK         8.2540   42.8890   32.3780 O.3       1 NZZ429      0.0000
@<TRIPOS>BOND
     1    1    2 1
     2    2    3 1
     3    2    4 2
     4    4    5 1
     5    5    6 1
     6    6    7 1
     7    7    8 1
     8    7    9 2
     9    9   10 1
    10   10   11 1
@<TRIPOS>SUBSTRUCTURE
     1 NZZ429      1 RESIDUE           4 A     NZZ     0 ROOT
