@<TRIPOS>MOLECULE
    AIB
   84    84     0     0     0
SMALL
USER_CHARGES


@<TRIPOS>ATOM
      1 X          53.0450 -110.0760  204.4990 N.4        1 AIB      0.000000
      2 X          51.5090 -111.4100  202.4680 O.2        1 AIB      0.000000
      3 X          53.5830 -110.4750  203.1980 C.3        1 AIB      0.000000
      4 X          52.7360 -111.5840  202.6300 C.2        1 AIB      0.000000
      5 X          53.5820 -109.2780  202.2560 C.3        1 AIB      0.000000
      6 X          55.0280 -110.9260  203.3630 C.3        1 AIB      0.000000
      7 X          55.0280 -108.8170  202.1060 C.3        1 AIB      0.000000
      8 X          55.9020 -109.7560  202.9310 C.3        1 AIB      0.000000
      9 X          53.1806 -109.5681  201.2850 H          1 AIB      0.000000
     10 X          52.9798 -108.4744  202.6799 H          1 AIB      0.000000
     11 X          55.2262 -111.1786  204.4046 H          1 AIB      0.000000
     12 X          55.2226 -111.7899  202.7275 H          1 AIB      0.000000
     13 X          55.3242 -108.8594  201.0579 H          1 AIB      0.000000
     14 X          55.1302 -107.7972  202.4770 H          1 AIB      0.000000
     15 X          56.7354 -110.1160  202.3277 H          1 AIB      0.000000
     16 X          56.2802 -109.2329  203.8093 H          1 AIB      0.000000
     17 X          52.0865 -109.7768  204.3901 H          1 AIB      0.000000
     18 X          53.0824 -110.8609  205.1336 H          1 AIB      0.000000
     19 X          53.5949 -109.3152  204.8718 H          1 AIB      0.000000
     20 X          53.3370 -112.6720  202.3310 N.am       2 AIB      0.000000
     21 X          52.6110 -113.8330  201.8370 C.3        2 AIB      0.000000
     22 X          52.3600 -114.7970  202.9890 C.2        2 AIB      0.000000
     23 X          53.0470 -114.7440  204.0100 O.2        2 AIB      0.000000
     24 X          53.3670 -114.5160  200.6890 C.3        2 AIB      0.000000
     25 X          53.2670 -113.6810  199.4240 C.3        2 AIB      0.000000
     26 X          54.8190 -114.7220  201.0700 C.3        2 AIB      0.000000
     27 X          54.3396 -112.7274  202.4401 H          2 AIB      0.000000
     28 X          51.6463 -113.4962  201.4576 H          2 AIB      0.000000
     29 X          52.9133 -115.4893  200.5020 H          2 AIB      0.000000
     30 X          52.2182 -113.5412  199.1623 H          2 AIB      0.000000
     31 X          53.7793 -114.1931  198.6095 H          2 AIB      0.000000
     32 X          53.7322 -112.7097  199.5921 H          2 AIB      0.000000
     33 X          54.8752 -115.3220  201.9783 H          2 AIB      0.000000
     34 X          55.2894 -113.7543  201.2444 H          2 AIB      0.000000
     35 X          55.3372 -115.2374  200.2614 H          2 AIB      0.000000
     36 N          51.3770 -115.6760  202.8100 N.am       3 AIB      0.000000
     37 CA         50.8880 -116.5620  203.8730 C.3        3 AIB      0.000000
     38 C          51.9750 -117.4030  204.5010 C.2        3 AIB      0.000000
     39 O          51.8630 -117.7390  205.6990 O.2        3 AIB      0.000000
     40 CB1        50.2360 -115.7090  204.9580 C.3        3 AIB      0.000000
     41 CB2        49.8480 -117.5030  203.2820 C.3        3 AIB      0.000000
     42 H          50.9465 -115.7363  201.8983 H          3 AIB      0.000000
     43 HB11       50.9775 -115.0333  205.3842 H          3 AIB      0.000000
     44 HB12       49.4227 -115.1280  204.5232 H          3 AIB      0.000000
     45 HB13       49.8417 -116.3565  205.7412 H          3 AIB      0.000000
     46 HB21       50.3094 -118.1143  202.5064 H          3 AIB      0.000000
     47 HB22       49.0351 -116.9200  202.8491 H          3 AIB      0.000000
     48 HB23       49.4542 -118.1485  204.0671 H          3 AIB      0.000000
     49 Y0         53.0070 -117.7550  203.7420 N.am       4 AIB      0.000000
     50 X          54.0750 -118.5930  204.2770 C.3        4 AIB      0.000000
     51 X          54.9390 -117.8260  205.2750 C.2        4 AIB      0.000000
     52 X          55.5930 -118.4270  206.1260 O.2        4 AIB      0.000000
     53 X          54.9480 -119.1610  203.1520 C.3        4 AIB      0.000000
     54 X          55.2100 -118.2160  201.9930 C.3        4 AIB      0.000000
     55 X          54.1540 -118.3160  200.9080 C.2        4 AIB      0.000000
     56 X          53.0150 -117.8600  201.1390 O.2        4 AIB      0.000000
     57 X          54.4610 -118.8650  199.8290 O.3        4 AIB      0.000000
     58 X          53.0528 -117.4390  202.7838 H          4 AIB      0.000000
     59 X          53.6155 -119.4301  204.8025 H          4 AIB      0.000000
     60 X          54.4530 -120.0483  202.7574 H          4 AIB      0.000000
     61 X          55.9062 -119.4604  203.5765 H          4 AIB      0.000000
     62 X          55.2248 -117.1943  202.3724 H          4 AIB      0.000000
     63 X          56.1838 -118.4472  201.5613 H          4 AIB      0.000000
     64 X          53.7035 -118.8586  199.2393 H          4 AIB      0.000000
     65 X          54.9390 -116.4970  205.1720 N.am       5 AIB      0.000000
     66 X          55.6970 -115.6860  206.1200 C.3        5 AIB      0.000000
     67 X          54.9930 -115.6460  207.4710 C.2        5 AIB      0.000000
     68 X          55.6210 -115.8220  208.5220 O.2        5 AIB      0.000000
     69 X          55.9230 -114.2710  205.5600 C.3        5 AIB      0.000000
     70 X          57.0230 -114.2860  204.4990 C.3        5 AIB      0.000000
     71 X          56.2680 -113.2980  206.6780 C.3        5 AIB      0.000000
     72 X          58.3550 -114.7950  205.0080 C.3        5 AIB      0.000000
     73 X          54.4126 -116.0495  204.4353 H          5 AIB      0.000000
     74 X          56.6717 -116.1533  206.2607 H          5 AIB      0.000000
     75 X          53.9297 -115.4612  207.5114 H          5 AIB      0.000000
     76 X          54.9981 -113.9375  205.0894 H          5 AIB      0.000000
     77 X          57.1611 -113.2687  204.1327 H          5 AIB      0.000000
     78 X          56.7011 -114.9160  203.6698 H          5 AIB      0.000000
     79 X          56.7600 -112.4208  206.2579 H          5 AIB      0.000000
     80 X          55.3545 -112.9925  207.1882 H          5 AIB      0.000000
     81 X          56.9362 -113.7837  207.3891 H          5 AIB      0.000000
     82 X          59.1627 -114.3245  204.4472 H          5 AIB      0.000000
     83 X          58.4043 -115.8761  204.8778 H          5 AIB      0.000000
     84 X          58.4570 -114.5514  206.0655 H          5 AIB      0.000000
@<TRIPOS>BOND
     1    1    3 1
     2    1   17 1
     3    1   18 1
     4    1   19 1
     5    2    4 2
     6    3    4 1
     7    3    5 1
     8    3    6 1
     9    4   20 am
    10    5    7 1
    11    5    9 1
    12    5   10 1
    13    6    8 1
    14    6   11 1
    15    6   12 1
    16    7    8 1
    17    7   13 1
    18    7   14 1
    19    8   15 1
    20    8   16 1
    21   20   21 1
    22   20   27 1
    23   21   22 1
    24   21   24 1
    25   21   28 1
    26   22   23 2
    27   22   36 am
    28   24   25 1
    29   24   26 1
    30   24   29 1
    31   25   30 1
    32   25   31 1
    33   25   32 1
    34   26   33 1
    35   26   34 1
    36   26   35 1
    37   36   37 1
    38   36   42 1
    39   37   38 1
    40   37   40 1
    41   37   41 1
    42   38   39 2
    43   38   49 am
    44   40   43 1
    45   40   44 1
    46   40   45 1
    47   41   46 1
    48   41   47 1
    49   41   48 1
    50   49   50 1
    51   49   58 1
    52   50   51 1
    53   50   53 1
    54   50   59 1
    55   51   52 2
    56   51   65 am
    57   53   54 1
    58   53   60 1
    59   53   61 1
    60   54   55 1
    61   54   62 1
    62   54   63 1
    63   55   56 2
    64   55   57 1
    65   57   64 1
    66   65   66 1
    67   65   73 1
    68   66   67 1
    69   66   69 1
    70   66   74 1
    71   67   68 2
    72   67   75 1
    73   69   70 1
    74   69   71 1
    75   69   76 1
    76   70   72 1
    77   70   77 1
    78   70   78 1
    79   71   79 1
    80   71   80 1
    81   71   81 1
    82   72   82 1
    83   72   83 1
    84   72   84 1
