@<TRIPOS>MOLECULE
8ES
82 88 1 0 0 
SMALL
USER_CHARGES


@<TRIPOS>ATOM
  1 N       77.1470    -5.0220    37.7840 N.pl3 1 Q8ES  -0.6534 
  2 H       76.6314    -5.8905    37.7847 H     1 Q8ES   0.4500 
  3 C       79.2220    -3.7810    38.2200 C.ar  1 Q8ES  -0.1435 
  4 O       79.2860    -1.3390    37.7190 O.3   1 Q8ES  -0.6800 
  5 H       79.3394    -1.0541    36.8038 H     1 Q8ES   0.4000 
  6 N1      77.2430    -2.6060    37.2950 N.pl3 1 Q8ES  -0.8334 
  7 N3      82.5880    -2.2980    32.9460 N.2   1 Q8ES  -0.2500 
  8 C4      74.1450    -3.7880    38.0500 C.3   1 Q8ES  -0.2400 
  9 H41     73.1170    -3.8897    37.7022 H     1 Q8ES   0.0800 
 10 H42     74.2936    -2.7879    38.4571 H     1 Q8ES   0.0800 
 11 H43     74.3412    -4.5287    38.8252 H     1 Q8ES   0.0800 
 12 C5      78.5510    -2.5380    37.7490 C.3   1 Q8ES   0.8330 
 13 H5      78.2068    -2.3215    38.7603 H     1 Q8ES   0.0800 
 14 C6      76.6060    -1.4080    36.7470 C.3   1 Q8ES   0.4730 
 15 H61     75.5500    -1.6155    36.5741 H     1 Q8ES   0.0800 
 16 H62     76.7035    -0.5943    37.4657 H     1 Q8ES   0.0800 
 17 C7      77.2570    -0.9830    35.4180 C.ar  1 Q8ES  -0.1435 
 18 C8      77.2750     0.3010    35.1150 C.ar  1 Q8ES  -0.1500 
 19 H8      76.8284     1.0177    35.7882 H     1 Q8ES   0.1500 
 20 C10     78.4570    -0.0760    32.9620 C.ar  1 Q8ES   0.0000 
 21 C13     81.3150    -0.6540    32.2170 C.2   1 Q8ES   0.6965 
 22 C15     80.2280     1.5970    29.3620 C.ar  1 Q8ES  -0.1500 
 23 H15     80.6590     2.0198    28.4665 H     1 Q8ES   0.1500 
 24 C17     78.3370     1.3070    30.8420 C.ar  1 Q8ES  -0.1500 
 25 H17     77.3086     1.5218    31.0924 H     1 Q8ES   0.1500 
 26 C20     79.0780    -6.1590    38.6670 C.ar  1 Q8ES  -0.1500 
 27 H20     78.5215    -7.0844    38.6865 H     1 Q8ES   0.1500 
 28 C21     80.4220    -6.1240    39.0850 C.ar  1 Q8ES  -0.1500 
 29 H21     80.8949    -7.0349    39.4212 H     1 Q8ES   0.1500 
 30 C22     81.1680    -4.9180    39.0740 C.ar  1 Q8ES   0.1170 
 31 C24     83.6450    -5.2320    38.6010 C.2   1 Q8ES   0.5690 
 32 C26     82.5040    -5.1380    36.2100 C.3   1 Q8ES  -0.1600 
 33 H261    81.4913    -5.2565    36.5953 H     1 Q8ES   0.0800 
 34 H262    82.7246    -4.0775    36.0881 H     1 Q8ES   0.0800 
 35 C28     83.6050    -6.8320    34.8570 C.3   1 Q8ES   0.0700 
 36 H281    84.3539    -6.5964    34.1009 H     1 Q8ES   0.0800 
 37 H282    83.1478    -7.7946    34.6280 H     1 Q8ES   0.0800 
 38 O1      84.7650    -5.1680    38.9850 O.2   1 Q8ES  -0.5700 
 39 C25     83.4270    -5.6970    37.1550 C.3   1 Q8ES   0.2110 
 40 H25     82.6903    -6.4327    37.4776 H     1 Q8ES   0.0800 
 41 S       84.3620    -6.9170    36.3960 S.3   1 Q8ES  -0.4600 
 42 C27     82.5950    -5.8170    34.8530 C.3   1 Q8ES  -0.1600 
 43 H271    82.8409    -5.0717    34.0966 H     1 Q8ES   0.0800 
 44 H272    81.6330    -6.2715    34.6160 H     1 Q8ES   0.0800 
 45 N6      82.5530    -4.8670    39.5050 N.am  1 Q8ES  -0.4771 
 46 C29     82.8430    -4.4170    40.8630 C.3   1 Q8ES   0.2836 
 47 H291    83.9200    -4.3058    40.9889 H     1 Q8ES   0.0800 
 48 H292    82.3554    -3.4588    41.0423 H     1 Q8ES   0.0800 
 49 C30     82.3160    -5.4530    41.8540 C.ar  1 Q8ES  -0.1435 
 50 C35     82.9850    -6.8270    41.9300 C.ar  1 Q8ES  -0.1500 
 51 H35     83.8240    -7.0556    41.2895 H     1 Q8ES   0.1500 
 52 C34     82.5360    -7.7330    42.7790 C.ar  1 Q8ES  -0.1500 
 53 H34     83.0182    -8.6972    42.8438 H     1 Q8ES   0.1500 
 54 C33     81.3310    -7.4180    43.6730 C.ar  1 Q8ES  -0.1500 
 55 H33     80.9566    -8.1636    44.3588 H     1 Q8ES   0.1500 
 56 C32     80.7520    -6.2340    43.6030 C.ar  1 Q8ES  -0.1500 
 57 H32     79.9109    -6.0061    44.2409 H     1 Q8ES   0.1500 
 58 C31     81.2730    -5.1810    42.6160 C.ar  1 Q8ES  -0.1500 
 59 H31     80.7872    -4.2190    42.5449 H     1 Q8ES   0.1500 
 60 C1      78.4800    -4.9870    38.2300 C.ar  1 Q8ES   0.3490 
 61 C23     80.5290    -3.7530    38.6350 C.ar  1 Q8ES  -0.1500 
 62 H23     81.0721    -2.8196    38.6228 H     1 Q8ES   0.1500 
 63 C2      76.5570    -3.8700    37.3500 C.cat 1 Q8ES   0.6038 
 64 C3      75.1020    -4.0090    36.8810 C.3   1 Q8ES  -0.0550 
 65 H31     74.9014    -3.2682    36.1070 H     1 Q8ES   0.0800 
 66 H32     74.9490    -5.0090    36.4752 H     1 Q8ES   0.0800 
 67 C19     77.8780    -1.9980    34.4340 C.ar  1 Q8ES  -0.1500 
 68 H19     77.8681    -3.0517    34.6708 H     1 Q8ES   0.1500 
 69 C18     78.4250    -1.5800    33.2960 C.ar  1 Q8ES  -0.1500 
 70 H18     78.8471    -2.2952    32.6055 H     1 Q8ES   0.1500 
 71 C9      77.9240     0.7800    33.8170 C.ar  1 Q8ES  -0.1500 
 72 H9      77.9477     1.8365    33.5942 H     1 Q8ES   0.1500 
 73 C11     79.0940     0.4740    31.6720 C.ar  1 Q8ES   0.0000 
 74 C16     78.9000     1.8620    29.6940 C.ar  1 Q8ES  -0.1500 
 75 H16     78.3045     2.5006    29.0584 H     1 Q8ES   0.1500 
 76 C14     80.9930     0.7860    30.1900 C.ar  1 Q8ES  -0.1500 
 77 H14     82.0204     0.5732    29.9341 H     1 Q8ES   0.1500 
 78 C12     80.4400     0.2450    31.3510 C.ar  1 Q8ES   0.0410 
 79 N5      81.6110    -0.4780    33.5920 N.pl3 1 Q8ES  -0.6188 
 80 H5      81.2826     0.2894    34.1607 H     1 Q8ES   0.0000 
 81 N4      82.4010    -1.4920    34.0340 N.2   1 Q8ES  -0.2500 
 82 N2      81.9160    -1.7870    31.8230 N.2   1 Q8ES  -0.6188 
@<TRIPOS>BOND
  1   1   2  1   
  2   1  60  1   
  3   1  63  ar  
  4   3  12  1   
  5   3  60  ar  
  6   3  61  ar  
  7   4   5  1   
  8   4  12  1   
  9   6  12  1   
 10   6  14  1   
 11   6  63  ar  
 12   7  81  2   
 13   7  82  1   
 14   8   9  1   
 15   8  10  1   
 16   8  11  1   
 17   8  64  1   
 18  12  13  1   
 19  14  15  1   
 20  14  16  1   
 21  14  17  1   
 22  17  18  ar  
 23  17  67  ar  
 24  18  19  1   
 25  18  71  ar  
 26  20  69  ar  
 27  20  71  ar  
 28  20  73  1   
 29  21  78  1   
 30  21  79  1   
 31  21  82  2   
 32  22  23  1   
 33  22  74  ar  
 34  22  76  ar  
 35  24  25  1   
 36  24  73  ar  
 37  24  74  ar  
 38  26  27  1   
 39  26  28  ar  
 40  26  60  ar  
 41  28  29  1   
 42  28  30  ar  
 43  30  45  1   
 44  30  61  ar  
 45  31  38  2   
 46  31  39  1   
 47  31  45  am  
 48  32  33  1   
 49  32  34  1   
 50  32  39  1   
 51  32  42  1   
 52  35  36  1   
 53  35  37  1   
 54  35  41  1   
 55  35  42  1   
 56  39  40  1   
 57  39  41  1   
 58  42  43  1   
 59  42  44  1   
 60  45  46  1   
 61  46  47  1   
 62  46  48  1   
 63  46  49  1   
 64  49  50  ar  
 65  49  58  ar  
 66  50  51  1   
 67  50  52  ar  
 68  52  53  1   
 69  52  54  ar  
 70  54  55  1   
 71  54  56  ar  
 72  56  57  1   
 73  56  58  ar  
 74  58  59  1   
 75  61  62  1   
 76  63  64  1   
 77  64  65  1   
 78  64  66  1   
 79  67  68  1   
 80  67  69  ar  
 81  69  70  1   
 82  71  72  1   
 83  73  78  ar  
 84  74  75  1   
 85  76  77  1   
 86  76  78  ar  
 87  79  80  1   
 88  79  81  1   
@<TRIPOS>SUBSTRUCTURE
  1 Q8ES   3 GROUP 4 L **** 0

# MOE 2019.01 (io_trps.svl 2018.10)
