@<TRIPOS>MOLECULE
8ES
82 88 1 0 0 
SMALL
USER_CHARGES


@<TRIPOS>ATOM
  1 N        6.9190     6.7430   -17.3000 N.pl3 1 Q8ES  -0.6534 
  2 H        6.0952     6.2451   -16.9942 H     1 Q8ES   0.4500 
  3 C        8.0970     8.8700   -17.6760 C.ar  1 Q8ES  -0.1435 
  4 O       10.4200     8.7840   -18.5860 O.3   1 Q8ES  -0.6800 
  5 H       11.1449     8.5134   -18.0178 H     1 Q8ES   0.4000 
  6 N1       9.2140     6.6990   -18.1800 N.pl3 1 Q8ES  -0.8334 
  7 N3      12.6700    10.4010   -13.5720 N.2   1 Q8ES  -0.2500 
  8 C4       7.2620     4.0170   -19.0370 C.3   1 Q8ES  -0.2400 
  9 H41      7.1799     2.9307   -19.0007 H     1 Q8ES   0.0800 
 10 H42      7.8965     4.3056   -19.8750 H     1 Q8ES   0.0800 
 11 H43      6.2709     4.4522   -19.1649 H     1 Q8ES   0.0800 
 12 C5       9.2710     8.0880   -18.1700 C.3   1 Q8ES   0.8330 
 13 H5       9.6674     8.0563   -17.1551 H     1 Q8ES   0.0800 
 14 C6      10.3760     5.9200   -18.6090 C.3   1 Q8ES   0.4730 
 15 H61     10.7051     6.2773   -19.5848 H     1 Q8ES   0.0800 
 16 H62     10.0944     4.8696   -18.6828 H     1 Q8ES   0.0800 
 17 C7      11.5270     6.0620   -17.6080 C.ar  1 Q8ES  -0.1435 
 18 C8      12.7600     6.1090   -18.0760 C.ar  1 Q8ES  -0.1500 
 19 H8      12.9366     6.0401   -19.1392 H     1 Q8ES   0.1500 
 20 C10     13.7360     6.3330   -15.8080 C.ar  1 Q8ES   0.0000 
 21 C13     14.1220     8.8320   -14.1540 C.2   1 Q8ES   0.6965 
 22 C15     17.2060     6.7940   -13.2530 C.ar  1 Q8ES  -0.1500 
 23 H15     18.0750     6.9008   -12.6206 H     1 Q8ES   0.1500 
 24 C17     15.9130     5.5000   -14.8270 C.ar  1 Q8ES  -0.1500 
 25 H17     15.7915     4.6084   -15.4243 H     1 Q8ES   0.1500 
 26 C20      5.8320     8.8310   -16.8070 C.ar  1 Q8ES  -0.1500 
 27 H20      4.9520     8.2908   -16.4907 H     1 Q8ES   0.1500 
 28 C21      5.8610    10.2390   -16.7610 C.ar  1 Q8ES  -0.1500 
 29 H21      5.0000    10.7731   -16.3870 H     1 Q8ES   0.1500 
 30 C22      6.9960    10.9700   -17.1950 C.ar  1 Q8ES   0.1170 
 31 C24      7.3600    13.1100   -15.8640 C.2   1 Q8ES   0.5690 
 32 C26      8.4140    11.1430   -14.4120 C.3   1 Q8ES  -0.1600 
 33 H261     9.4087    11.2723   -14.8385 H     1 Q8ES   0.0800 
 34 H262     7.8869    10.3560   -14.9514 H     1 Q8ES   0.0800 
 35 C28      7.9410    11.6950   -12.0930 C.3   1 Q8ES   0.0700 
 36 H281     7.1529    11.2100   -11.5171 H     1 Q8ES   0.0800 
 37 H282     8.6928    12.0966   -11.4136 H     1 Q8ES   0.0800 
 38 O1       7.3730    14.2970   -15.8290 O.2   1 Q8ES  -0.5700 
 39 C25      7.6840    12.3730   -14.5550 C.3   1 Q8ES   0.2110 
 40 H25      8.6254    12.9195   -14.4980 H     1 Q8ES   0.0800 
 41 S        7.2620    12.9810   -13.0070 S.3   1 Q8ES  -0.4600 
 42 C27      8.5540    10.7310   -12.9560 C.3   1 Q8ES  -0.1600 
 43 H271     9.6123    10.6510   -12.7076 H     1 Q8ES   0.0800 
 44 H272     8.0725     9.7640   -12.8105 H     1 Q8ES   0.0800 
 45 N6       7.0260    12.4240   -17.1180 N.am  1 Q8ES  -0.4771 
 46 C29      6.7290    13.1930   -18.3250 C.3   1 Q8ES   0.2836 
 47 H291     7.3441    12.8249   -19.1462 H     1 Q8ES   0.0800 
 48 H292     6.9537    14.2444   -18.1457 H     1 Q8ES   0.0800 
 49 C30      5.2520    13.0490   -18.6970 C.ar  1 Q8ES  -0.1435 
 50 C35      4.1660    13.4720   -17.6980 C.ar  1 Q8ES  -0.1500 
 51 H35      4.4427    13.8717   -16.7336 H     1 Q8ES   0.1500 
 52 C34      2.8890    13.3450   -18.0230 C.ar  1 Q8ES  -0.1500 
 53 H34      2.1226    13.6486   -17.3252 H     1 Q8ES   0.1500 
 54 C33      2.4950    12.7670   -19.3900 C.ar  1 Q8ES  -0.1500 
 55 H33      1.4522    12.6579   -19.6490 H     1 Q8ES   0.1500 
 56 C32      3.4320    12.4020   -20.2520 C.ar  1 Q8ES  -0.1500 
 57 H32      3.1548    12.0029   -21.2165 H     1 Q8ES   0.1500 
 58 C31      4.9140    12.5480   -19.8760 C.ar  1 Q8ES  -0.1500 
 59 H31      5.6805    12.2423   -20.5727 H     1 Q8ES   0.1500 
 60 C1       6.9490     8.1490   -17.2640 C.ar  1 Q8ES   0.3490 
 61 C23      8.1090    10.2470   -17.6500 C.ar  1 Q8ES  -0.1500 
 62 H23      8.9879    10.7779   -17.9847 H     1 Q8ES   0.1500 
 63 C2       8.0080     6.0550   -17.7500 C.cat 1 Q8ES   0.6038 
 64 C3       7.8770     4.5250   -17.7340 C.3   1 Q8ES  -0.0550 
 65 H31      8.8658     4.0834   -17.6101 H     1 Q8ES   0.0800 
 66 H32      7.2402     4.2300   -16.9000 H     1 Q8ES   0.0800 
 67 C19     11.2790     6.1490   -16.0900 C.ar  1 Q8ES  -0.1500 
 68 H19     10.2706     6.1114   -15.7051 H     1 Q8ES   0.1500 
 69 C18     12.3020     6.2700   -15.2560 C.ar  1 Q8ES  -0.1500 
 70 H18     12.1289     6.3242   -14.1913 H     1 Q8ES   0.1500 
 71 C9      13.9390     6.2610   -17.1140 C.ar  1 Q8ES  -0.1500 
 72 H9      14.9452     6.3100   -17.5033 H     1 Q8ES   0.1500 
 73 C11     14.9450     6.5080   -14.8790 C.ar  1 Q8ES   0.0000 
 74 C16     17.0330     5.6380   -14.0100 C.ar  1 Q8ES  -0.1500 
 75 H16     17.7677     4.8478   -13.9637 H     1 Q8ES   0.1500 
 76 C14     16.2570     7.8130   -13.3120 C.ar  1 Q8ES  -0.1500 
 77 H14     16.3913     8.7077   -12.7222 H     1 Q8ES   0.1500 
 78 C12     15.1340     7.6820   -14.1300 C.ar  1 Q8ES   0.0410 
 79 N5      13.6110     9.4980   -15.3010 N.pl3 1 Q8ES  -0.6188 
 80 H5      13.8722     9.2848   -16.2531 H     1 Q8ES   0.0000 
 81 N4      12.7190    10.4650   -14.9390 N.2   1 Q8ES  -0.2500 
 82 N2      13.5330     9.3980   -13.0830 N.2   1 Q8ES  -0.6187 
@<TRIPOS>BOND
  1   1   2  1   
  2   1  60  1   
  3   1  63  ar  
  4   3  12  1   
  5   3  60  ar  
  6   3  61  ar  
  7   4   5  1   
  8   4  12  1   
  9   6  12  1   
 10   6  14  1   
 11   6  63  ar  
 12   7  81  2   
 13   7  82  1   
 14   8   9  1   
 15   8  10  1   
 16   8  11  1   
 17   8  64  1   
 18  12  13  1   
 19  14  15  1   
 20  14  16  1   
 21  14  17  1   
 22  17  18  ar  
 23  17  67  ar  
 24  18  19  1   
 25  18  71  ar  
 26  20  69  ar  
 27  20  71  ar  
 28  20  73  1   
 29  21  78  1   
 30  21  79  1   
 31  21  82  2   
 32  22  23  1   
 33  22  74  ar  
 34  22  76  ar  
 35  24  25  1   
 36  24  73  ar  
 37  24  74  ar  
 38  26  27  1   
 39  26  28  ar  
 40  26  60  ar  
 41  28  29  1   
 42  28  30  ar  
 43  30  45  1   
 44  30  61  ar  
 45  31  38  2   
 46  31  39  1   
 47  31  45  am  
 48  32  33  1   
 49  32  34  1   
 50  32  39  1   
 51  32  42  1   
 52  35  36  1   
 53  35  37  1   
 54  35  41  1   
 55  35  42  1   
 56  39  40  1   
 57  39  41  1   
 58  42  43  1   
 59  42  44  1   
 60  45  46  1   
 61  46  47  1   
 62  46  48  1   
 63  46  49  1   
 64  49  50  ar  
 65  49  58  ar  
 66  50  51  1   
 67  50  52  ar  
 68  52  53  1   
 69  52  54  ar  
 70  54  55  1   
 71  54  56  ar  
 72  56  57  1   
 73  56  58  ar  
 74  58  59  1   
 75  61  62  1   
 76  63  64  1   
 77  64  65  1   
 78  64  66  1   
 79  67  68  1   
 80  67  69  ar  
 81  69  70  1   
 82  71  72  1   
 83  73  78  ar  
 84  74  75  1   
 85  76  77  1   
 86  76  78  ar  
 87  79  80  1   
 88  79  81  1   
@<TRIPOS>SUBSTRUCTURE
  1 Q8ES   3 GROUP 4 L **** 0

# MOE 2019.01 (io_trps.svl 2018.10)
