# created with PyMOL 2.3.5
@<TRIPOS>MOLECULE
8ES
76 82 1 0 0
SMALL
USER_CHARGES


@<TRIPOS>ATOM
      1 N1          0.6520    2.0010    0.0530 N.pl3     1 8ES1        0.0000
      2 N3          8.7930    1.5060    0.2630 N.pl3     1 8ES1        0.0000
      3 C4          0.9220    3.1340    3.6160 C.3       1 8ES1        0.0000
      4 C5         -0.2410    1.3400   -0.7190 C.2       1 8ES1        0.0000
      5 C6          1.9140    2.4650   -0.5300 C.3       1 8ES1        0.0000
      6 C7          2.9160    1.3390   -0.5200 C.2       1 8ES1        0.0000
      7 C8          3.8230    1.2340    0.5190 C.2       1 8ES1        0.0000
      8 C10         4.7560   -0.7290   -0.5000 C.2       1 8ES1        0.0000
      9 C13         7.5650   -0.1730   -0.0750 C.2       1 8ES1        0.0000
     10 C15         7.5860   -3.9120   -0.4700 C.2       1 8ES1        0.0000
     11 C17         5.3210   -3.1500   -0.6790 C.2       1 8ES1        0.0000
     12 C20        -2.8590    0.7980    1.9190 C.2       1 8ES1        0.0000
     13 C21        -3.8160    0.1250    1.2140 C.2       1 8ES1        0.0000
     14 C22        -3.6350   -0.1710   -0.1370 C.2       1 8ES1        0.0000
     15 C24        -5.7100   -0.2030   -1.2990 C.2       1 8ES1        0.0000
     16 C26        -6.8790    2.0190   -1.4950 C.2       1 8ES1        0.0000
     17 C28        -5.5220    3.6750   -0.6840 C.2       1 8ES1        0.0000
     18 O1         -6.6070   -0.8150   -1.8490 O.2       1 8ES1        0.0000
     19 C25        -5.8050    1.2510   -1.1400 C.2       1 8ES1        0.0000
     20 S          -4.5570    2.2870   -0.4610 S.3       1 8ES1        0.0000
     21 C27        -6.7000    3.3570   -1.2330 C.2       1 8ES1        0.0000
     22 N6         -4.6300   -0.8620   -0.8360 N.pl3     1 8ES1        0.0000
     23 C29        -4.4970   -2.3030   -1.0660 C.3       1 8ES1        0.0000
     24 C30        -5.1310   -3.0540    0.0760 C.2       1 8ES1        0.0000
     25 C35        -6.4680   -3.4020    0.0170 C.2       1 8ES1        0.0000
     26 C34        -7.0500   -4.0900    1.0650 C.2       1 8ES1        0.0000
     27 C33        -6.2960   -4.4310    2.1720 C.2       1 8ES1        0.0000
     28 C32        -4.9590   -4.0830    2.2310 C.2       1 8ES1        0.0000
     29 C31        -4.3760   -3.4000    1.1810 C.2       1 8ES1        0.0000
     30 C1         -1.6810    1.2000    1.2850 C.2       1 8ES1        0.0000
     31 C23        -2.4770    0.2160   -0.7900 C.2       1 8ES1        0.0000
     32 C          -1.4930    0.9030   -0.0830 C.2       1 8ES1        0.0000
     33 O          -0.0170    1.1160   -1.8950 O.2       1 8ES1        0.0000
     34 C2          0.3870    2.2440    1.3640 C.2       1 8ES1        0.0000
     35 C3          1.4180    2.9840    2.1770 C.3       1 8ES1        0.0000
     36 N          -0.7080    1.8700    1.9520 N.2       1 8ES1        0.0000
     37 C19         2.9210    0.4120   -1.5460 C.2       1 8ES1        0.0000
     38 C18         3.8360   -0.6210   -1.5420 C.2       1 8ES1        0.0000
     39 C9          4.7440    0.2060    0.5340 C.2       1 8ES1        0.0000
     40 C11         5.7420   -1.8360   -0.4900 C.2       1 8ES1        0.0000
     41 C16         6.2420   -4.1780   -0.6680 C.2       1 8ES1        0.0000
     42 C14         8.0190   -2.6150   -0.2760 C.2       1 8ES1        0.0000
     43 C12         7.1040   -1.5670   -0.2840 C.2       1 8ES1        0.0000
     44 N5          6.8030    0.9300   -0.0660 N.2       1 8ES1        0.0000
     45 N4          7.5850    1.9340    0.1460 N.2       1 8ES1        0.0000
     46 N2          8.8060    0.2240    0.1280 N.2       1 8ES1        0.0000
     47 H1          9.5720    2.0610    0.4230 H         1 8ES1        0.0000
     48 H2          1.6670    3.6690    4.2040 H         1 8ES1        0.0000
     49 H3         -0.0150    3.6910    3.6220 H         1 8ES1        0.0000
     50 H4          0.7590    2.1460    4.0490 H         1 8ES1        0.0000
     51 H5          1.7420    2.7890   -1.5560 H         1 8ES1        0.0000
     52 H6          2.2990    3.3000    0.0550 H         1 8ES1        0.0000
     53 H7          3.8120    1.9590    1.3200 H         1 8ES1        0.0000
     54 H8          8.2980   -4.7230   -0.4640 H         1 8ES1        0.0000
     55 H9          4.2740   -3.3640   -0.8330 H         1 8ES1        0.0000
     56 H10        -3.0130    1.0200    2.9640 H         1 8ES1        0.0000
     57 H11        -4.7240   -0.1840    1.7100 H         1 8ES1        0.0000
     58 H12        -7.7760    1.6150   -1.9400 H         1 8ES1        0.0000
     59 H13        -5.2230    4.6780   -0.4170 H         1 8ES1        0.0000
     60 H14        -7.4540    4.0970   -1.4590 H         1 8ES1        0.0000
     61 H15        -4.9960   -2.5700   -1.9970 H         1 8ES1        0.0000
     62 H16        -3.4410   -2.5650   -1.1310 H         1 8ES1        0.0000
     63 H17        -7.0580   -3.1360   -0.8480 H         1 8ES1        0.0000
     64 H18        -8.0940   -4.3620    1.0190 H         1 8ES1        0.0000
     65 H19        -6.7500   -4.9690    2.9910 H         1 8ES1        0.0000
     66 H20        -4.3680   -4.3530    3.0940 H         1 8ES1        0.0000
     67 H21        -3.3310   -3.1280    1.2270 H         1 8ES1        0.0000
     68 H22        -2.3370   -0.0140   -1.8360 H         1 8ES1        0.0000
     69 H23         1.5810    3.9720    1.7440 H         1 8ES1        0.0000
     70 H24         2.3550    2.4270    2.1710 H         1 8ES1        0.0000
     71 H25         2.2070    0.4960   -2.3520 H         1 8ES1        0.0000
     72 H26         3.8420   -1.3420   -2.3460 H         1 8ES1        0.0000
     73 H27         5.4510    0.1250    1.3450 H         1 8ES1        0.0000
     74 H28         5.9120   -5.1960   -0.8150 H         1 8ES1        0.0000
     75 H29         9.0690   -2.4150   -0.1170 H         1 8ES1        0.0000
     76 HN          9.6214   -0.3704    0.1702 H         1 8ES1        0.0000
@<TRIPOS>BOND
     1   28   29 2
     2   27   28 1
     3   24   29 1
     4   26   27 2
     5    3   35 1
     6   23   24 1
     7   24   25 2
     8    1    5 1
     9    5    6 1
    10    4   33 2
    11   22   23 1
    12    1    4 1
    13    1   34 1
    14    4   32 1
    15    6    7 2
    16    7   39 1
    17   25   26 1
    18   34   35 1
    19   34   36 2
    20   31   32 2
    21   30   32 1
    22   14   31 1
    23    6   37 1
    24   30   36 1
    25   12   30 2
    26   14   22 1
    27   13   14 2
    28   15   22 1
    29    8   39 2
    30   12   13 1
    31   37   38 2
    32   15   18 2
    33   15   19 1
    34    8   38 1
    35    8   40 1
    36   44   45 2
    37    9   44 1
    38    2   45 1
    39   11   40 2
    40   40   43 1
    41   11   41 1
    42   16   19 2
    43   19   20 1
    44   16   21 1
    45    9   43 1
    46    9   46 2
    47   42   43 2
    48   10   41 2
    49    2   46 1
    50   10   42 1
    51   17   20 1
    52   17   21 2
    53    2   47 1
    54    3   48 1
    55    3   49 1
    56    3   50 1
    57    5   51 1
    58    5   52 1
    59    7   53 1
    60   10   54 1
    61   11   55 1
    62   12   56 1
    63   13   57 1
    64   16   58 1
    65   17   59 1
    66   21   60 1
    67   23   61 1
    68   23   62 1
    69   25   63 1
    70   26   64 1
    71   27   65 1
    72   28   66 1
    73   29   67 1
    74   31   68 1
    75   35   69 1
    76   35   70 1
    77   37   71 1
    78   38   72 1
    79   39   73 1
    80   41   74 1
    81   42   75 1
    82   76   46 1
@<TRIPOS>SUBSTRUCTURE
     1 8ES1        1 RESIDUE           4 A     8ES     0 ROOT
