# created with PyMOL 2.3.5
@<TRIPOS>MOLECULE
ACE
7 6 1                   
SMALL
USER_CHARGES
@<TRIPOS>ATOM
1	   C	-0.133	0.453	0.000	C.2	1	ACE0	0.000	
2	   O	-1.113	-0.252	0.000	O.2	1	ACE0	0.000	
3	 CH3	1.241	-0.167	0.000	C.3	1	ACE0	0.000	
4	   H	-0.240	1.528	0.000	 H	1	ACE0	0.000	
5	  H1	1.360	-0.785	0.890	 H	1	ACE0	0.000	
6	  H2	1.360	-0.785	-0.890	 H	1	ACE0	0.000	
7	  H3	1.995	0.620	0.000	 H	1	ACE0	0.000	
@<TRIPOS>BOND
1 1 2 2
2 1 3 1
3 1 4 1
4 3 5 1
5 3 6 1
6 3 7 1
@<TRIPOS>SUBSTRUCTURE
1	ACE0	1	GROUP	1 ****	ACE
