# created with PyMOL 2.3.5
@<TRIPOS>MOLECULE
A90
38 39 1 0 0
SMALL
USER_CHARGES


@<TRIPOS>ATOM
      1 C4          3.0610    1.3370   -0.5780 C.2       1 A901        0.0000
      2 C14         5.5920   -1.4580   -0.7670 C.3       1 A901        0.0000
      3 C5          2.2910    0.9390    0.4990 C.2       1 A901        0.0000
      4 C6          1.1260    1.7850    0.9450 C.3       1 A901        0.0000
      5 C11        -4.4260   -1.9950   -0.0060 C.2       1 A901        0.0000
      6 C7         -0.1380    1.3420    0.2060 C.3       1 A901        0.0000
      7 C8         -3.3550    0.5500   -0.1500 C.2       1 A901        0.0000
      8 C9         -3.0090   -0.3990   -1.0940 C.2       1 A901        0.0000
      9 C10        -3.5440   -1.6710   -1.0220 C.2       1 A901        0.0000
     10 C12        -4.7720   -1.0440    0.9380 C.2       1 A901        0.0000
     11 C13        -4.2360    0.2280    0.8650 C.2       1 A901        0.0000
     12 C3          4.1300    0.5610   -0.9870 C.2       1 A901        0.0000
     13 O2          8.0060   -1.6400   -0.2790 O.3       1 A901        0.0000
     14 C15         6.8380   -1.0230   -0.0390 C.2       1 A901        0.0000
     15 O3          6.7860   -0.1190    0.7600 O.co2     1 A901        0.0000
     16 C2          4.4280   -0.6120   -0.3200 C.2       1 A901        0.0000
     17 C1          3.6580   -1.0090    0.7580 C.2       1 A901        0.0000
     18 C           2.5900   -0.2340    1.1670 C.2       1 A901        0.0000
     19 N          -1.2700    2.1640    0.6390 N.3       1 A901        0.0000
     20 S          -2.6730    2.1720   -0.2410 S.O2      1 A901        0.0000
     21 O          -2.2950    2.3730   -1.5960 O.2       1 A901        0.0000
     22 O1         -3.5750    3.0270    0.4490 O.2       1 A901        0.0000
     23 CL         -5.1030   -3.5910    0.0800 Cl        1 A901        0.0000
     24 H4          2.8278    2.2535   -1.0996 H         1 A901        0.0000
     25 H142        5.3873   -2.5049   -0.5430 H         1 A901        0.0000
     26 H143        5.7376   -1.3377   -1.8405 H         1 A901        0.0000
     27 H62         1.3302    2.8318    0.7202 H         1 A901        0.0000
     28 H63         0.9800    1.6656    2.0186 H         1 A901        0.0000
     29 H72         0.0081    1.4617   -0.8675 H         1 A901        0.0000
     30 H73        -0.3422    0.2951    0.4305 H         1 A901        0.0000
     31 H9         -2.3210   -0.1463   -1.8872 H         1 A901        0.0000
     32 H10        -3.2737   -2.4127   -1.7590 H         1 A901        0.0000
     33 H12        -5.4604   -1.2956    1.7312 H         1 A901        0.0000
     34 H13        -4.5058    0.9705    1.6014 H         1 A901        0.0000
     35 H3          4.7322    0.8718   -1.8280 H         1 A901        0.0000
     36 H1          3.8916   -1.9250    1.2802 H         1 A901        0.0000
     37 H           1.9886   -0.5444    2.0086 H         1 A901        0.0000
     38 HN         -1.1951    2.7263    1.4747 H         1 A901        0.0000
@<TRIPOS>BOND
     1    8    9 2
     2    5    9 1
     3    7    8 1
     4    5   23 1
     5   20   21 2
     6    5   10 2
     7    7   20 1
     8    7   11 2
     9   19   20 1
    10    6   19 1
    11   20   22 2
    12    4    6 1
    13    3    4 1
    14   10   11 1
    15    1    3 2
    16    1   12 1
    17    3   18 1
    18   12   16 2
    19   17   18 2
    20   16   17 1
    21    2   16 1
    22    2   14 1
    23   14   15 2
    24   13   14 1
    25   24    1 1
    26   25    2 1
    27   26    2 1
    28   27    4 1
    29   28    4 1
    30   29    6 1
    31   30    6 1
    32   31    8 1
    33   32    9 1
    34   33   10 1
    35   34   11 1
    36   35   12 1
    37   36   17 1
    38   37   18 1
    39   38   19 1
@<TRIPOS>SUBSTRUCTURE
     1 A901        1 RESIDUE           4 A     A90     0 ROOT
