# created with PyMOL 2.3.5
@<TRIPOS>MOLECULE
FSY
45 47 1 0 0
SMALL
USER_CHARGES


@<TRIPOS>ATOM
      1 O01        -4.9730   -3.2490    1.7600 O.3       1 FSY1        0.0000
      2 C02        -4.1930   -2.3100    1.2010 C.2       1 FSY1        0.0000
      3 O03        -3.2380   -2.6360    0.5350 O.co2     1 FSY1        0.0000
      4 C04        -4.5070   -0.8510    1.4050 C.3       1 FSY1        0.0000
      5 C05        -3.4870   -0.0110    0.6790 C.2       1 FSY1        0.0000
      6 C06        -2.3240    0.4400    1.1750 C.2       1 FSY1        0.0000
      7 C07        -1.8210    0.1820    2.5720 C.3       1 FSY1        0.0000
      8 N08        -1.6630    1.1680    0.2230 N.pl3     1 FSY1        0.0000
      9 C09        -2.3990    1.2060   -0.9370 C.2       1 FSY1        0.0000
     10 C10        -3.5720    0.4630   -0.7030 C.2       1 FSY1        0.0000
     11 C11        -4.5140    0.3260   -1.7250 C.2       1 FSY1        0.0000
     12 C12        -4.2480    0.9330   -2.9390 C.2       1 FSY1        0.0000
     13 C13        -3.0710    1.6460   -3.1000 C.2       1 FSY1        0.0000
     14 N14        -2.2000    1.7690   -2.1210 N.2       1 FSY1        0.0000
     15 C15        -0.3610    1.8140    0.4120 C.3       1 FSY1        0.0000
     16 C16         0.7370    0.8210    0.1300 C.2       1 FSY1        0.0000
     17 C17         0.4260   -0.4340   -0.3590 C.2       1 FSY1        0.0000
     18 C18         1.4330   -1.3440   -0.6180 C.2       1 FSY1        0.0000
     19 C19         2.7520   -0.9990   -0.3880 C.2       1 FSY1        0.0000
     20 C20         3.0640    0.2560    0.1000 C.2       1 FSY1        0.0000
     21 C21         2.0560    1.1680    0.3530 C.2       1 FSY1        0.0000
     22 C22         2.3960    2.5370    0.8850 C.3       1 FSY1        0.0000
     23 S26         4.0360   -2.1620   -0.7110 S.O2      1 FSY1        0.0000
     24 O27         3.4960   -3.0110   -1.7150 O.2       1 FSY1        0.0000
     25 O28         5.1800   -1.3590   -0.9690 O.2       1 FSY1        0.0000
     26 C29         4.2310   -3.0660    0.8490 C.3       1 FSY1        0.0000
     27 F23         1.8600    3.5130    0.0380 F         1 FSY1        0.0000
     28 F24         1.8570    2.6860    2.1680 F         1 FSY1        0.0000
     29 F25         3.7860    2.6830    0.9440 F         1 FSY1        0.0000
     30 H042       -5.5008   -0.6351    1.0128 H         1 FSY1        0.0000
     31 H043       -4.4780   -0.6184    2.4695 H         1 FSY1        0.0000
     32 H11        -5.4228   -0.2370   -1.5719 H         1 FSY1        0.0000
     33 H12        -4.9516    0.8519   -3.7543 H         1 FSY1        0.0000
     34 H13        -2.8632    2.1121   -4.0518 H         1 FSY1        0.0000
     35 H152       -0.2717    2.6584   -0.2715 H         1 FSY1        0.0000
     36 H153       -0.2763    2.1675    1.4396 H         1 FSY1        0.0000
     37 H17        -0.6043   -0.7033   -0.5387 H         1 FSY1        0.0000
     38 H18         1.1899   -2.3245   -1.0000 H         1 FSY1        0.0000
     39 H20         4.0940    0.5240    0.2835 H         1 FSY1        0.0000
     40 H291        5.0148   -3.8156    0.7396 H         1 FSY1        0.0000
     41 H292        3.2919   -3.5571    1.1039 H         1 FSY1        0.0000
     42 H293        4.5031   -2.3688    1.6414 H         1 FSY1        0.0000
     43 H071       -2.5464   -0.4252    3.1136 H         1 FSY1        0.0000
     44 H072       -0.8691   -0.3468    2.5233 H         1 FSY1        0.0000
     45 H073       -1.6832    1.1313    3.0896 H         1 FSY1        0.0000
@<TRIPOS>BOND
     1   23   25 2
     2   23   26 1
     3   23   24 2
     4   19   23 1
     5   19   20 2
     6   18   19 1
     7   20   21 1
     8   17   18 2
     9   22   28 1
    10   21   22 1
    11   16   21 2
    12   22   27 1
    13   22   29 1
    14   16   17 1
    15   15   16 1
    16    6    7 1
    17    8   15 1
    18    6    8 1
    19    5    6 2
    20    8    9 1
    21    2    3 2
    22    4    5 1
    23    5   10 1
    24    2    4 1
    25    1    2 1
    26    9   14 2
    27    9   10 1
    28   13   14 1
    29   10   11 2
    30   12   13 2
    31   11   12 1
    32   30    4 1
    33   31    4 1
    34   32   11 1
    35   33   12 1
    36   34   13 1
    37   35   15 1
    38   36   15 1
    39   37   17 1
    40   38   18 1
    41   39   20 1
    42   40   26 1
    43   41   26 1
    44   42   26 1
    45   43    7 1
    46   44    7 1
    47   45    7 1
@<TRIPOS>SUBSTRUCTURE
     1 FSY1        1 RESIDUE           4 A     FSY     0 ROOT
