# created with PyMOL 2.3.5
@<TRIPOS>MOLECULE
ACT
7 6 1                   
SMALL
USER_CHARGES
@<TRIPOS>ATOM
1	   C	-0.072	0.000	0.000	C.2	1	ACT0	0.000	
2	   O	-0.682	1.056	0.000	O.co2	1	ACT0	0.000	
3	 OXT	-0.682	-1.056	0.000	O.co2	1	ACT0	0.000	
4	 CH3	1.435	0.000	0.000	C.3	1	ACT0	0.000	
5	  H1	1.799	0.000	1.028	 H	1	ACT0	0.000	
6	  H2	1.799	-0.890	-0.514	 H	1	ACT0	0.000	
7	  H3	1.799	0.890	-0.514	 H	1	ACT0	0.000	
@<TRIPOS>BOND
1 1 2 2
2 1 3 1
3 1 4 1
4 4 5 1
5 4 6 1
6 4 7 1
@<TRIPOS>SUBSTRUCTURE
1	ACT0	1	GROUP	1 ****	ACT
