# created with PyMOL 2.3.5
@<TRIPOS>MOLECULE
MRV
78 82 1                 
SMALL
USER_CHARGES
@<TRIPOS>ATOM
1	  F1	-7.597	1.143	0.678	 F	1	MRV0	0.000	
2	  O1	-3.950	-0.774	-1.866	O.2	1	MRV0	0.000	
3	  C1	4.293	1.289	0.008	C.3	1	MRV0	0.000	
4	  N1	5.709	1.069	0.315	N.pl3	1	MRV0	0.000	
5	 C10	0.420	-0.213	-1.151	C.3	1	MRV0	0.000	
6	 C11	5.791	-1.458	-0.054	C.3	1	MRV0	0.000	
7	 C12	-0.162	-1.393	-0.371	C.3	1	MRV0	0.000	
8	 C13	-1.632	-1.580	-0.752	C.3	1	MRV0	0.000	
9	 C14	6.369	3.482	0.831	C.3	1	MRV0	0.000	
10	 C15	-2.172	-2.816	-0.078	C.2	1	MRV0	0.000	
11	 C16	-3.553	-0.093	-0.945	C.2	1	MRV0	0.000	
12	 C17	-4.344	1.110	-0.499	C.3	1	MRV0	0.000	
13	 C18	-6.811	2.293	0.548	C.3	1	MRV0	0.000	
14	 C19	6.527	-2.035	-1.265	C.3	1	MRV0	0.000	
15	  F2	-7.547	3.409	0.962	 F	1	MRV0	0.000	
16	  N2	1.831	-0.033	-0.785	N.3	1	MRV0	0.000	
17	  C2	1.958	0.598	0.556	C.3	1	MRV0	0.000	
18	 C20	5.949	-2.405	1.137	C.3	1	MRV0	0.000	
19	 C21	-5.596	1.246	-1.368	C.3	1	MRV0	0.000	
20	 C22	-4.755	0.936	0.964	C.3	1	MRV0	0.000	
21	 C23	-6.400	2.467	-0.915	C.3	1	MRV0	0.000	
22	 C24	-5.559	2.156	1.417	C.3	1	MRV0	0.000	
23	 C25	-2.564	-2.765	1.247	C.2	1	MRV0	0.000	
24	 C26	-2.282	-3.997	-0.786	C.2	1	MRV0	0.000	
25	 C27	-3.059	-3.898	1.865	C.2	1	MRV0	0.000	
26	 C28	-2.777	-5.130	-0.168	C.2	1	MRV0	0.000	
27	 C29	-3.164	-5.081	1.158	C.2	1	MRV0	0.000	
28	  C3	2.496	0.943	-1.689	C.3	1	MRV0	0.000	
29	  N3	7.611	0.132	0.628	N.2	1	MRV0	0.000	
30	  C4	6.373	-0.112	0.293	C.2	1	MRV0	0.000	
31	  N4	7.758	1.390	0.853	N.2	1	MRV0	0.000	
32	  N5	-2.402	-0.412	-0.319	N.pl3	1	MRV0	0.000	
33	  C5	3.431	0.477	0.979	C.3	1	MRV0	0.000	
34	  C6	4.008	0.847	-1.430	C.3	1	MRV0	0.000	
35	  C7	6.621	2.005	0.671	C.2	1	MRV0	0.000	
36	  C8	1.660	2.093	0.303	C.3	1	MRV0	0.000	
37	  C9	2.015	2.321	-1.181	C.3	1	MRV0	0.000	
38	  H1	4.060	2.349	0.115	 H	1	MRV0	0.000	
39	  H2	0.345	-0.411	-2.220	 H	1	MRV0	0.000	
40	  H3	-0.136	0.693	-0.909	 H	1	MRV0	0.000	
41	  H4	4.733	-1.346	-0.292	 H	1	MRV0	0.000	
42	  H5	0.394	-2.298	-0.612	 H	1	MRV0	0.000	
43	  H6	-0.087	-1.194	0.698	 H	1	MRV0	0.000	
44	  H7	-1.716	-1.690	-1.833	 H	1	MRV0	0.000	
45	  H8	6.455	3.972	-0.140	 H	1	MRV0	0.000	
46	  H9	5.367	3.639	1.230	 H	1	MRV0	0.000	
47	 H10	7.103	3.904	1.517	 H	1	MRV0	0.000	
48	 H11	-3.732	2.006	-0.601	 H	1	MRV0	0.000	
49	 H12	6.106	-3.009	-1.516	 H	1	MRV0	0.000	
50	 H13	6.415	-1.361	-2.114	 H	1	MRV0	0.000	
51	 H14	7.585	-2.147	-1.028	 H	1	MRV0	0.000	
52	 H16	1.276	0.159	1.284	 H	1	MRV0	0.000	
53	 H17	7.007	-2.517	1.375	 H	1	MRV0	0.000	
54	 H18	5.425	-1.994	2.000	 H	1	MRV0	0.000	
55	 H19	5.528	-3.378	0.886	 H	1	MRV0	0.000	
56	 H20	-5.304	1.370	-2.410	 H	1	MRV0	0.000	
57	 H21	-6.208	0.350	-1.266	 H	1	MRV0	0.000	
58	 H22	-5.367	0.040	1.066	 H	1	MRV0	0.000	
59	 H23	-3.863	0.839	1.583	 H	1	MRV0	0.000	
60	 H24	-7.293	2.564	-1.534	 H	1	MRV0	0.000	
61	 H25	-5.788	3.363	-1.017	 H	1	MRV0	0.000	
62	 H26	-4.947	3.053	1.315	 H	1	MRV0	0.000	
63	 H27	-5.852	2.033	2.459	 H	1	MRV0	0.000	
64	 H28	-2.482	-1.840	1.799	 H	1	MRV0	0.000	
65	 H29	-1.980	-4.036	-1.823	 H	1	MRV0	0.000	
66	 H30	-3.364	-3.858	2.900	 H	1	MRV0	0.000	
67	 H31	-2.863	-6.054	-0.722	 H	1	MRV0	0.000	
68	 H32	-3.550	-5.966	1.641	 H	1	MRV0	0.000	
69	 H33	2.248	0.770	-2.737	 H	1	MRV0	0.000	
70	 H34	-2.084	0.133	0.418	 H	1	MRV0	0.000	
71	 H35	3.735	-0.569	0.950	 H	1	MRV0	0.000	
72	 H36	3.553	0.867	1.990	 H	1	MRV0	0.000	
73	 H37	4.540	1.498	-2.124	 H	1	MRV0	0.000	
74	 H38	4.338	-0.183	-1.567	 H	1	MRV0	0.000	
75	 H39	0.604	2.305	0.476	 H	1	MRV0	0.000	
76	 H40	2.283	2.718	0.942	 H	1	MRV0	0.000	
77	 H41	2.814	3.058	-1.271	 H	1	MRV0	0.000	
78	 H42	1.135	2.645	-1.737	 H	1	MRV0	0.000	
@<TRIPOS>BOND
1 13 15 1
2 1 13 1
3 13 21 1
4 13 22 1
5 19 21 1
6 12 19 1
7 20 22 1
8 9 35 1
9 12 20 1
10 11 12 1
11 17 36 1
12 36 37 1
13 2 11 2
14 31 35 2
15 4 35 1
16 17 33 1
17 3 33 1
18 11 32 1
19 16 17 1
20 29 31 1
21 3 4 1
22 4 30 1
23 3 34 1
24 28 37 1
25 29 30 2
26 8 32 1
27 5 7 1
28 7 8 1
29 6 30 1
30 5 16 1
31 16 28 1
32 8 10 1
33 28 34 1
34 6 14 1
35 6 18 1
36 10 24 2
37 10 23 1
38 24 26 1
39 23 25 2
40 26 27 2
41 25 27 1
42 3 38 1
43 5 39 1
44 5 40 1
45 6 41 1
46 7 42 1
47 7 43 1
48 8 44 1
49 9 45 1
50 9 46 1
51 9 47 1
52 12 48 1
53 14 49 1
54 14 50 1
55 14 51 1
56 17 52 1
57 18 53 1
58 18 54 1
59 18 55 1
60 19 56 1
61 19 57 1
62 20 58 1
63 20 59 1
64 21 60 1
65 21 61 1
66 22 62 1
67 22 63 1
68 23 64 1
69 24 65 1
70 25 66 1
71 26 67 1
72 27 68 1
73 28 69 1
74 32 70 1
75 33 71 1
76 33 72 1
77 34 73 1
78 34 74 1
79 36 75 1
80 36 76 1
81 37 77 1
82 37 78 1
@<TRIPOS>SUBSTRUCTURE
1	MRV0	1	GROUP	1 ****	MRV
