@<TRIPOS>MOLECULE
    YCM
   80    79     0     0     0
SMALL
USER_CHARGES


@<TRIPOS>ATOM
      1 X          14.3790   13.5220   41.5030 N.4        1 YCM      0.000000
      2 X          13.2050   14.1610   42.0870 C.3        1 YCM      0.000000
      3 X          12.1890   13.1340   42.5670 C.2        1 YCM      0.000000
      4 X          11.5590   13.3170   43.6160 O.2        1 YCM      0.000000
      5 X          12.5740   15.1030   41.0640 C.3        1 YCM      0.000000
      6 X          13.3830   16.3490   40.7070 C.3        1 YCM      0.000000
      7 X          12.6530   17.1230   39.6350 C.3        1 YCM      0.000000
      8 X          13.6260   17.2180   41.9330 C.3        1 YCM      0.000000
      9 X          13.5269   14.7518   42.9446 H          1 YCM      0.000000
     10 X          12.4121   14.5373   40.1464 H          1 YCM      0.000000
     11 X          11.6040   15.4222   41.4451 H          1 YCM      0.000000
     12 X          14.3477   16.0333   40.3098 H          1 YCM      0.000000
     13 X          14.1530   16.6386   42.6910 H          1 YCM      0.000000
     14 X          12.6703   17.5559   42.3337 H          1 YCM      0.000000
     15 X          14.2283   18.0821   41.6523 H          1 YCM      0.000000
     16 X          14.7957   12.8992   42.1801 H          1 YCM      0.000000
     17 X          15.0501   14.2289   41.2383 H          1 YCM      0.000000
     18 X          14.1044   12.9958   40.6858 H          1 YCM      0.000000
     19 X          13.2253   18.0137   39.3757 H          1 YCM      0.000000
     20 X          12.5360   16.4965   38.7508 H          1 YCM      0.000000
     21 X          11.6706   17.4172   40.0045 H          1 YCM      0.000000
     22 X          12.0140   12.0510   41.8190 N.am       2 YCM      0.000000
     23 X          11.0740   11.0030   42.2050 C.3        2 YCM      0.000000
     24 X          11.4830   10.3170   43.5050 C.2        2 YCM      0.000000
     25 X          10.6550   10.1320   44.3970 O.2        2 YCM      0.000000
     26 X          10.9310    9.9610   41.0910 C.3        2 YCM      0.000000
     27 X          10.2930   10.5100   39.9510 O.3        2 YCM      0.000000
     28 X          12.5427   11.9501   40.9644 H          2 YCM      0.000000
     29 X          10.0993   11.4655   42.3605 H          2 YCM      0.000000
     30 X          11.9220    9.6068   40.8070 H          2 YCM      0.000000
     31 X          10.3430    9.1208   41.4603 H          2 YCM      0.000000
     32 X          10.2170    9.8367   39.2709 H          2 YCM      0.000000
     33 N          12.7540    9.9340   43.6120 N.am       3 YCM      0.000000
     34 CA         13.2370    9.2290   44.8320 C.3        3 YCM      0.000000
     35 CB         14.5810    8.5800   44.5690 C.3        3 YCM      0.000000
     36 SG         14.4790    6.8290   44.1370 S.3        3 YCM      0.000000
     37 CD         13.2130    6.2610   45.3100 C.3        3 YCM      0.000000
     38 CE         13.6110    4.9680   45.9820 C.2        3 YCM      0.000000
     39 OZ1        14.5800    4.9380   46.7330 O.2        3 YCM      0.000000
     40 NZ2        12.8660    3.9210   45.7080 N.am       3 YCM      0.000000
     41 C          13.3180   10.2030   46.0120 C.2        3 YCM      0.000000
     42 O          13.2790    9.7270   47.1640 O.2        3 YCM      0.000000
     43 H          13.3978   10.1237   42.8573 H          3 YCM      0.000000
     44 HA         12.5210    8.4461   45.0819 H          3 YCM      0.000000
     45 HB2        15.1898    8.6763   45.4680 H          3 YCM      0.000000
     46 HB3        15.0730    9.1126   43.7551 H          3 YCM      0.000000
     47 HD2        12.2779    6.1056   44.7719 H          3 YCM      0.000000
     48 HD3        13.0632    7.0268   46.0711 H          3 YCM      0.000000
     49 HZ21       13.0793    3.0263   46.1253 H          3 YCM      0.000000
     50 HZ22       12.0800    4.0109   45.0801 H          3 YCM      0.000000
     51 Y0         13.4470   11.4980   45.7510 N.am       4 YCM      0.000000
     52 X          13.3560   12.4750   46.8240 C.3        4 YCM      0.000000
     53 X          11.9420   12.3950   47.3750 C.2        4 YCM      0.000000
     54 X          11.7370   12.3740   48.5880 O.2        4 YCM      0.000000
     55 X          13.7110   13.8890   46.3480 C.3        4 YCM      0.000000
     56 X          15.2100   13.9940   46.0740 C.3        4 YCM      0.000000
     57 X          13.2790   14.9360   47.3680 C.3        4 YCM      0.000000
     58 X          15.6070   15.3200   45.5020 C.3        4 YCM      0.000000
     59 X          13.6091   11.8061   44.8029 H          4 YCM      0.000000
     60 X          14.0521   12.1897   47.6127 H          4 YCM      0.000000
     61 X          13.1789   14.0797   45.4160 H          4 YCM      0.000000
     62 X          15.7459   13.8454   47.0114 H          4 YCM      0.000000
     63 X          15.4968   13.2082   45.3752 H          4 YCM      0.000000
     64 X          12.2082   14.8460   47.5506 H          4 YCM      0.000000
     65 X          13.8208   14.7794   48.3008 H          4 YCM      0.000000
     66 X          13.4994   15.9314   46.9825 H          4 YCM      0.000000
     67 X          16.6831   15.3341   45.3289 H          4 YCM      0.000000
     68 X          15.3416   16.1118   46.2025 H          4 YCM      0.000000
     69 X          15.0851   15.4796   44.5585 H          4 YCM      0.000000
     70 X          10.9620   12.3780   46.4680 N.am       5 YCM      0.000000
     71 X           9.5690   12.3710   46.8980 C.3        5 YCM      0.000000
     72 X           9.2200   11.0780   47.6260 C.2        5 YCM      0.000000
     73 X           8.5380   11.1050   48.6560 O.2        5 YCM      0.000000
     74 X           8.6460   12.5770   45.6970 C.3        5 YCM      0.000000
     75 X          11.1861   12.3700   45.4832 H          5 YCM      0.000000
     76 X           9.4210   13.2016   47.5882 H          5 YCM      0.000000
     77 X           9.5709   10.1327   47.2392 H          5 YCM      0.000000
     78 X           8.9103   13.5049   45.1899 H          5 YCM      0.000000
     79 X           7.6124   12.6316   46.0386 H          5 YCM      0.000000
     80 X           8.7566   11.7412   45.0062 H          5 YCM      0.000000
@<TRIPOS>BOND
     1    1    2 1
     2    1   16 1
     3    1   17 1
     4    1   18 1
     5    2    3 1
     6    2    5 1
     7    2    9 1
     8    3    4 2
     9    3   22 am
    10    5    6 1
    11    5   10 1
    12    5   11 1
    13    6    7 1
    14    6    8 1
    15    6   12 1
    16    7   19 1
    17    7   20 1
    18    7   21 1
    19    8   13 1
    20    8   14 1
    21    8   15 1
    22   22   23 1
    23   22   28 1
    24   23   24 1
    25   23   26 1
    26   23   29 1
    27   24   25 2
    28   24   33 am
    29   26   27 1
    30   26   30 1
    31   26   31 1
    32   27   32 1
    33   33   34 1
    34   33   43 1
    35   34   35 1
    36   34   41 1
    37   34   44 1
    38   35   36 1
    39   35   45 1
    40   35   46 1
    41   36   37 1
    42   37   38 1
    43   37   47 1
    44   37   48 1
    45   38   39 2
    46   38   40 am
    47   40   49 1
    48   40   50 1
    49   41   42 2
    50   41   51 am
    51   51   52 1
    52   51   59 1
    53   52   53 1
    54   52   55 1
    55   52   60 1
    56   53   54 2
    57   53   70 am
    58   55   56 1
    59   55   57 1
    60   55   61 1
    61   56   58 1
    62   56   62 1
    63   56   63 1
    64   57   64 1
    65   57   65 1
    66   57   66 1
    67   58   67 1
    68   58   68 1
    69   58   69 1
    70   70   71 1
    71   70   75 1
    72   71   72 1
    73   71   74 1
    74   71   76 1
    75   72   73 2
    76   72   77 1
    77   74   78 1
    78   74   79 1
    79   74   80 1
