@<TRIPOS>MOLECULE
    9DW
  101   103     0     0     0
SMALL
USER_CHARGES


@<TRIPOS>ATOM
      1 X         -16.0330   28.6400    3.2750 N.4        1 9DW      0.000000
      2 X         -16.3520   29.6550    2.2880 C.3        1 9DW      0.000000
      3 X         -15.4910   30.9220    2.4830 C.2        1 9DW      0.000000
      4 X         -14.6480   31.1990    1.6300 O.2        1 9DW      0.000000
      5 X         -17.8900   29.8570    2.2440 C.3        1 9DW      0.000000
      6 X         -18.5110   29.1300    1.2000 O.3        1 9DW      0.000000
      7 X         -16.0703   29.2398    1.3203 H          1 9DW      0.000000
      8 X         -18.3111   29.5291    3.1944 H          1 9DW      0.000000
      9 X         -18.1030   30.9176    2.1107 H          1 9DW      0.000000
     10 X         -19.4575   29.2894    1.2175 H          1 9DW      0.000000
     11 X         -15.0327   28.5043    3.3079 H          1 9DW      0.000000
     12 X         -16.4821   27.7715    3.0217 H          1 9DW      0.000000
     13 X         -16.3625   28.9373    4.1823 H          1 9DW      0.000000
     14 X         -15.7000   31.6660    3.5830 N.am       2 9DW      0.000000
     15 X         -14.9440   32.8930    3.8890 C.3        2 9DW      0.000000
     16 Y1        -13.4250   32.6340    3.9650 C.2        2 9DW      0.000000
     17 X         -12.6350   33.5430    3.7110 O.2        2 9DW      0.000000
     18 X         -15.3860   33.6500    5.1700 C.3        2 9DW      0.000000
     19 X         -16.8400   33.4900    5.6290 C.2        2 9DW      0.000000
     20 X         -17.1480   34.0350    6.7120 O.2        2 9DW      0.000000
     21 X         -17.6420   32.8420    4.9270 O.3        2 9DW      0.000000
     22 X         -16.4127   31.3682    4.2338 H          2 9DW      0.000000
     23 X         -15.1031   33.5743    3.0532 H          2 9DW      0.000000
     24 X         -14.7483   33.3087    5.9855 H          2 9DW      0.000000
     25 X         -15.1963   34.7123    5.0159 H          2 9DW      0.000000
     26 X         -18.5410   33.0581    5.1852 H          2 9DW      0.000000
     27 C01        -7.9410   25.8230    8.2370 C.3        3 9DW      0.000000
     28 C02        -6.7260   25.8260    7.2930 C.3        3 9DW      0.000000
     29 C05        -3.6090   27.9570    7.8550 C.ar       3 9DW      0.000000
     30 C07        -5.3270   29.4240    7.0250 C.ar       3 9DW      0.000000
     31 C08        -6.2350   28.3650    6.9430 C.ar       3 9DW      0.000000
     32 C09        -7.6010   28.6640    6.4610 C.ar       3 9DW      0.000000
     33 C11        -9.3160   28.5320    4.7750 C.ar       3 9DW      0.000000
     34 C12       -10.1820   29.2370    5.6140 C.ar       3 9DW      0.000000
     35 C13        -9.7570   29.6610    6.8720 C.ar       3 9DW      0.000000
     36 C14        -8.4690   29.3710    7.2960 C.ar       3 9DW      0.000000
     37 C15       -11.5960   29.5720    5.1650 C.3        3 9DW      0.000000
     38 C03        -5.8240   27.0710    7.3340 C.ar       3 9DW      0.000000
     39 C04        -4.5110   26.8890    7.7830 C.ar       3 9DW      0.000000
     40 C06        -4.0280   29.2240    7.4740 C.ar       3 9DW      0.000000
     41 C10        -8.0260   28.2440    5.2010 C.ar       3 9DW      0.000000
     42 C16       -11.6720   30.9360    4.4380 C.3        3 9DW      0.000000
     43 C88       -10.9840   30.8480    3.0700 C.2        3 9DW      0.000000
     44 CA7        -2.0160   26.6690    9.0630 C.3        3 9DW      0.000000
     45 N17       -13.0520   31.3970    4.3130 N.am       3 9DW      0.000000
     46 O89        -9.8940   31.3990    2.9230 O.2        3 9DW      0.000000
     47 OA6        -2.3120   27.8250    8.2910 O.3        3 9DW      0.000000
     48 H022       -6.1097   24.9630    7.5450 H          3 9DW      0.000000
     49 H023       -7.0872   25.7004    6.2723 H          3 9DW      0.000000
     50 H07        -5.6409   30.4156    6.7341 H          3 9DW      0.000000
     51 H11        -9.6484   28.2120    3.7985 H          3 9DW      0.000000
     52 H13       -10.4279   30.2129    7.5136 H          3 9DW      0.000000
     53 H14        -8.1370   29.6920    8.2723 H          3 9DW      0.000000
     54 H152      -12.2436   29.6050    6.0411 H          3 9DW      0.000000
     55 H153      -11.9491   28.7908    4.4918 H          3 9DW      0.000000
     56 H04        -4.1866   25.9028    8.0805 H          3 9DW      0.000000
     57 H06        -3.3422   30.0566    7.5268 H          3 9DW      0.000000
     58 H10        -7.3534   27.6959    4.5579 H          3 9DW      0.000000
     59 H16       -11.1291   31.6656    5.0388 H          3 9DW      0.000000
     60 H17       -13.7840   30.7281    4.5047 H          3 9DW      0.000000
     61 H011       -8.0452   24.8384    8.6927 H          3 9DW      0.000000
     62 H012       -8.8418   26.0579    7.6701 H          3 9DW      0.000000
     63 H013       -7.7971   26.5709    9.0168 H          3 9DW      0.000000
     64 HA71       -1.0130   26.7573    9.4805 H          3 9DW      0.000000
     65 HA72       -2.0682   25.7849    8.4276 H          3 9DW      0.000000
     66 HA73       -2.7399   26.5777    9.8728 H          3 9DW      0.000000
     67 X         -11.1770   29.9360    0.7520 C.3        4 9DW      0.000000
     68 X         -12.2480   29.2060   -0.0960 C.3        4 9DW      0.000000
     69 X         -11.8690   28.8900   -1.5670 C.3        4 9DW      0.000000
     70 X         -11.0510   27.5990   -1.7450 C.3        4 9DW      0.000000
     71 X         -10.5340   27.4290   -3.1640 C.ar       4 9DW      0.000000
     72 X         -11.2470   26.6630   -4.0890 C.ar       4 9DW      0.000000
     73 X         -10.7530   26.5260   -5.3860 C.ar       4 9DW      0.000000
     74 X          -9.5740   27.1370   -5.7690 C.ar       4 9DW      0.000000
     75 X          -8.8620   27.8980   -4.8650 C.ar       4 9DW      0.000000
     76 X          -9.3390   28.0490   -3.5560 C.ar       4 9DW      0.000000
     77 X          -7.5880   28.5300   -5.3710 C.3        4 9DW      0.000000
     78 X         -11.4570   25.7230   -6.4270 C.3        4 9DW      0.000000
     79 X         -10.7570   31.2880    0.1600 C.2        4 9DW      0.000000
     80 Y0        -11.6300   30.1540    2.1200 N.am       4 9DW      0.000000
     81 X          -9.4670   31.5350    0.0830 N.am       4 9DW      0.000000
     82 X         -11.5770   32.1130   -0.2090 O.2        4 9DW      0.000000
     83 X         -10.2926   29.3001    0.7911 H          4 9DW      0.000000
     84 X         -12.4738   28.2610    0.3980 H          4 9DW      0.000000
     85 X         -13.1528   29.8138   -0.0998 H          4 9DW      0.000000
     86 X         -12.7890   28.7937   -2.1436 H          4 9DW      0.000000
     87 X         -11.2934   29.7253   -1.9659 H          4 9DW      0.000000
     88 X         -11.6849   26.7469   -1.4996 H          4 9DW      0.000000
     89 X         -10.2038   27.6192   -1.0595 H          4 9DW      0.000000
     90 X         -12.1707   26.1821   -3.8030 H          4 9DW      0.000000
     91 X          -9.2091   27.0184   -6.7786 H          4 9DW      0.000000
     92 X          -8.7842   28.6451   -2.8466 H          4 9DW      0.000000
     93 X         -12.5158   29.7431    2.3781 H          4 9DW      0.000000
     94 X          -8.8009   30.8449    0.3995 H          4 9DW      0.000000
     95 X          -9.1428   32.4147   -0.2926 H          4 9DW      0.000000
     96 X          -7.1213   29.1010   -4.5683 H          4 9DW      0.000000
     97 X          -7.8183   29.1951   -6.2033 H          4 9DW      0.000000
     98 X          -6.9044   27.7505   -5.7073 H          4 9DW      0.000000
     99 X         -12.3662   25.2959   -6.0039 H          4 9DW      0.000000
    100 X         -11.7153   26.3660   -7.2684 H          4 9DW      0.000000
    101 X         -10.8040   24.9205   -6.7700 H          4 9DW      0.000000
@<TRIPOS>BOND
     1    1    2 1
     2    1   11 1
     3    1   12 1
     4    1   13 1
     5    2    3 1
     6    2    5 1
     7    2    7 1
     8    3    4 2
     9    3   14 am
    10    5    6 1
    11    5    8 1
    12    5    9 1
    13    6   10 1
    14   14   15 1
    15   14   22 1
    16   15   16 1
    17   15   18 1
    18   15   23 1
    19   16   17 2
    20   16   45 am
    21   18   19 1
    22   18   24 1
    23   18   25 1
    24   19   20 2
    25   19   21 1
    26   21   26 1
    27   27   28 1
    28   27   61 1
    29   27   62 1
    30   27   63 1
    31   28   38 1
    32   28   48 1
    33   28   49 1
    34   29   39 ar
    35   29   40 ar
    36   29   47 1
    37   30   31 ar
    38   30   40 ar
    39   30   50 1
    40   31   32 1
    41   31   38 ar
    42   32   36 ar
    43   32   41 ar
    44   33   34 ar
    45   33   41 ar
    46   33   51 1
    47   34   35 ar
    48   34   37 1
    49   35   36 ar
    50   35   52 1
    51   36   53 1
    52   37   42 1
    53   37   54 1
    54   37   55 1
    55   38   39 ar
    56   39   56 1
    57   40   57 1
    58   41   58 1
    59   42   43 1
    60   42   45 1
    61   42   59 1
    62   43   46 2
    63   43   80 am
    64   44   47 1
    65   44   64 1
    66   44   65 1
    67   44   66 1
    68   45   60 1
    69   67   68 1
    70   67   79 1
    71   67   80 1
    72   67   83 1
    73   68   69 1
    74   68   84 1
    75   68   85 1
    76   69   70 1
    77   69   86 1
    78   69   87 1
    79   70   71 1
    80   70   88 1
    81   70   89 1
    82   71   72 ar
    83   71   76 ar
    84   72   73 ar
    85   72   90 1
    86   73   74 ar
    87   73   78 1
    88   74   75 ar
    89   74   91 1
    90   75   76 ar
    91   75   77 1
    92   76   92 1
    93   77   96 1
    94   77   97 1
    95   77   98 1
    96   78   99 1
    97   78  100 1
    98   78  101 1
    99   79   81 am
   100   79   82 2
   101   80   93 1
   102   81   94 1
   103   81   95 1
