# created with PyMOL 2.3.5
@<TRIPOS>MOLECULE
9DT
26 26 1                 
SMALL
USER_CHARGES
@<TRIPOS>ATOM
1	 C36	2.759	-0.102	-0.183	C.2	1	9DT0	0.000	
2	 C38	1.328	-0.225	0.275	C.3	1	9DT0	0.000	
3	 C39	1.165	-1.502	1.101	C.3	1	9DT0	0.000	
4	 C40	0.406	-0.286	-0.945	C.3	1	9DT0	0.000	
5	 C41	-1.030	-0.285	-0.489	C.2	1	9DT0	0.000	
6	 C42	-1.704	-1.481	-0.326	C.2	1	9DT0	0.000	
7	 C43	-3.022	-1.481	0.093	C.2	1	9DT0	0.000	
8	 C44	-3.667	-0.285	0.348	C.2	1	9DT0	0.000	
9	 C45	-2.995	0.912	0.186	C.2	1	9DT0	0.000	
10	 C46	-1.673	0.913	-0.228	C.2	1	9DT0	0.000	
11	 F47	-1.014	2.082	-0.383	 F	1	9DT0	0.000	
12	 N48	0.975	0.939	1.098	N.3	1	9DT0	0.000	
13	 O37	3.080	-0.501	-1.277	O.co2	1	9DT0	0.000	
14	  H2	1.822	-1.459	1.970	 H	1	9DT0	0.000	
15	  H3	0.131	-1.592	1.432	 H	1	9DT0	0.000	
16	  H4	1.427	-2.366	0.490	 H	1	9DT0	0.000	
17	  H5	0.586	0.581	-1.580	 H	1	9DT0	0.000	
18	  H6	0.608	-1.197	-1.508	 H	1	9DT0	0.000	
19	  H7	-1.201	-2.416	-0.525	 H	1	9DT0	0.000	
20	  H8	-3.547	-2.415	0.220	 H	1	9DT0	0.000	
21	  H9	-4.696	-0.286	0.674	 H	1	9DT0	0.000	
22	 H10	-3.499	1.846	0.385	 H	1	9DT0	0.000	
23	 H11	1.527	0.966	1.942	 H	1	9DT0	0.000	
24	 H12	1.075	1.796	0.574	 H	1	9DT0	0.000	
25	 OXT	3.675	0.456	0.623	O.3	1	9DT0	0.000	
26	  H1	4.580	0.513	0.286	 H	1	9DT0	0.000	
@<TRIPOS>BOND
1 1 13 2
2 1 2 1
3 2 12 1
4 2 3 1
5 2 4 1
6 6 7 2
7 7 8 1
8 5 6 1
9 8 9 2
10 4 5 1
11 5 10 2
12 9 10 1
13 10 11 1
14 3 14 1
15 3 15 1
16 3 16 1
17 4 17 1
18 4 18 1
19 6 19 1
20 7 20 1
21 8 21 1
22 9 22 1
23 12 23 1
24 12 24 1
25 1 25 1
26 25 26 1
@<TRIPOS>SUBSTRUCTURE
1	9DT0	1	GROUP	1 ****	9DT
