# created with PyMOL 2.3.5
@<TRIPOS>MOLECULE
AIB
16 15 1                 
SMALL
USER_CHARGES
@<TRIPOS>ATOM
1	   N	-1.298	0.711	0.969	N.3	1	AIB0	0.000	
2	  CA	-0.053	0.002	0.646	C.3	1	AIB0	0.000	
3	   C	0.144	-0.009	-0.847	C.2	1	AIB0	0.000	
4	   O	1.261	-0.025	-1.308	O.co2	1	AIB0	0.000	
5	 OXT	-0.919	-0.003	-1.665	O.3	1	AIB0	0.000	
6	 CB1	1.126	0.715	1.311	C.3	1	AIB0	0.000	
7	 CB2	-0.136	-1.435	1.161	C.3	1	AIB0	0.000	
8	   H	-1.199	1.649	0.612	 H	1	AIB0	0.000	
9	  H2	-2.030	0.272	0.430	 H	1	AIB0	0.000	
10	 HO2	-0.792	-0.010	-2.624	 H	1	AIB0	0.000	
11	HB11	0.983	0.723	2.391	 H	1	AIB0	0.000	
12	HB12	2.050	0.189	1.071	 H	1	AIB0	0.000	
13	HB13	1.185	1.739	0.944	 H	1	AIB0	0.000	
14	HB21	0.787	-1.961	0.921	 H	1	AIB0	0.000	
15	HB22	-0.279	-1.426	2.242	 H	1	AIB0	0.000	
16	HB23	-0.976	-1.943	0.687	 H	1	AIB0	0.000	
@<TRIPOS>BOND
1 1 2 1
2 1 8 1
3 1 9 1
4 2 3 1
5 2 6 1
6 2 7 1
7 3 4 2
8 3 5 1
9 5 10 1
10 6 11 1
11 6 12 1
12 6 13 1
13 7 14 1
14 7 15 1
15 7 16 1
@<TRIPOS>SUBSTRUCTURE
1	AIB0	1	GROUP	1 ****	AIB
