@<TRIPOS>MOLECULE
8EM
78 84 1 0 0 
SMALL
NO_CHARGES


@<TRIPOS>ATOM
  1 N      117.4280   -91.8140    37.3820 N.2   1 Q8EM   0.0000 
  2 C      119.4520   -90.6110    38.0170 C.ar  1 Q8EM   0.0000 
  3 O      119.4150   -88.2610    37.6290 O.2   1 Q8EM   0.0000 
  4 N1     117.5920   -89.4600    36.9630 N.am  1 Q8EM   0.0000 
  5 N3     122.9980   -88.0500    33.7550 N.2   1 Q8EM   0.0000 
  6 C4     114.4820   -90.7480    37.4080 C.3   1 Q8EM   0.0000 
  7 H41    114.8097   -91.3172    38.2779 H     1 Q8EM   0.0000 
  8 H42    114.3069   -89.7117    37.6969 H     1 Q8EM   0.0000 
  9 C5     113.1910   -91.3340    36.9060 C.3   1 Q8EM   0.0000 
 10 H51    113.3524   -92.3715    36.6134 H     1 Q8EM   0.0000 
 11 H52    112.8436   -90.7634    36.0447 H     1 Q8EM   0.0000 
 12 H53    112.4413   -91.2917    37.6961 H     1 Q8EM   0.0000 
 13 C6     118.8700   -89.3500    37.5310 C.2   1 Q8EM   0.0000 
 14 C7     117.0040   -88.2480    36.3630 C.3   1 Q8EM   0.0000 
 15 H71    117.0932   -87.4336    37.0820 H     1 Q8EM   0.0000 
 16 H72    115.9502   -88.4428    36.1636 H     1 Q8EM   0.0000 
 17 C8     117.6580   -87.8120    35.0700 C.ar  1 Q8EM   0.0000 
 18 C10    118.1850   -86.0570    33.4950 C.ar  1 Q8EM   0.0000 
 19 H10    118.1054   -85.0195    33.2057 H     1 Q8EM   0.0000 
 20 C13    120.9530   -86.5380    31.2000 C.ar  1 Q8EM   0.0000 
 21 C15    121.5060   -85.9140    30.0770 C.ar  1 Q8EM   0.0000 
 22 H15    122.5730   -85.9492    29.9137 H     1 Q8EM   0.0000 
 23 C17    119.3290   -85.2070    29.3740 C.ar  1 Q8EM   0.0000 
 24 H17    118.6964   -84.7026    28.6586 H     1 Q8EM   0.0000 
 25 C20    118.3650   -88.7010    34.2670 C.ar  1 Q8EM   0.0000 
 26 H20    118.4408   -89.7378    34.5596 H     1 Q8EM   0.0000 
 27 C21    119.2910   -93.0020    38.3260 C.ar  1 Q8EM   0.0000 
 28 H21    118.7192   -93.9169    38.2779 H     1 Q8EM   0.0000 
 29 C22    120.5980   -93.0270    38.7880 C.ar  1 Q8EM   0.0000 
 30 H22    121.0410   -93.9644    39.0904 H     1 Q8EM   0.0000 
 31 C24    120.7620   -90.6320    38.5010 C.ar  1 Q8EM   0.0000 
 32 H24    121.3200   -89.7119    38.5930 H     1 Q8EM   0.0000 
 33 C26    123.6580   -92.5990    37.0960 C.ar  1 Q8EM   0.0000 
 34 C28    124.4530   -93.8270    35.1720 C.ar  1 Q8EM   0.0000 
 35 H28    125.1257   -94.5554    34.7438 H     1 Q8EM   0.0000 
 36 O1     124.7740   -92.7810    39.1380 O.2   1 Q8EM   0.0000 
 37 C25    123.7350   -92.4520    38.5920 C.2   1 Q8EM   0.0000 
 38 C31    122.7260   -91.9670    36.2700 C.ar  1 Q8EM   0.0000 
 39 H31    122.0465   -91.2395    36.6888 H     1 Q8EM   0.0000 
 40 C30    122.6650   -92.2650    34.9170 C.ar  1 Q8EM   0.0000 
 41 H30    121.9420   -91.7656    34.2890 H     1 Q8EM   0.0000 
 42 C29    123.5230   -93.1960    34.3690 C.ar  1 Q8EM   0.0000 
 43 H29    123.4677   -93.4305    33.3162 H     1 Q8EM   0.0000 
 44 C27    124.5280   -93.5310    36.5240 C.ar  1 Q8EM   0.0000 
 45 H27    125.2648   -94.0246    37.1403 H     1 Q8EM   0.0000 
 46 N6     122.7130   -91.8870    39.3050 N.am  1 Q8EM   0.0000 
 47 C32    122.9900   -91.4510    40.6710 C.3   1 Q8EM   0.0000 
 48 H321   122.4891   -90.5001    40.8529 H     1 Q8EM   0.0000 
 49 H322   124.0654   -91.3250    40.7965 H     1 Q8EM   0.0000 
 50 C33    122.4970   -92.4600    41.6490 C.2   1 Q8EM   0.0000 
 51 O2     123.0770   -93.6980    41.5990 O.3   1 Q8EM   0.0000 
 52 C36    122.4610   -94.4540    42.5650 C.2   1 Q8EM   0.0000 
 53 H36    122.6939   -95.4862    42.7811 H     1 Q8EM   0.0000 
 54 C35    121.5390   -93.7380    43.1960 C.2   1 Q8EM   0.0000 
 55 H35    120.8992   -94.0733    43.9988 H     1 Q8EM   0.0000 
 56 C34    121.5580   -92.4370    42.6060 C.2   1 Q8EM   0.0000 
 57 H34    120.9361   -91.5971    42.8782 H     1 Q8EM   0.0000 
 58 C23    121.3490   -91.8470    38.8660 C.ar  1 Q8EM   0.0000 
 59 C1     118.7110   -91.7950    37.9220 C.ar  1 Q8EM   0.0000 
 60 C2     116.9500   -90.6970    36.9420 C.2   1 Q8EM   0.0000 
 61 C3     115.5800   -90.7830    36.3610 C.3   1 Q8EM   0.0000 
 62 H31    115.4383   -89.9418    35.6825 H     1 Q8EM   0.0000 
 63 H32    115.4980   -91.7166    35.8044 H     1 Q8EM   0.0000 
 64 C19    118.9740   -88.2750    33.0960 C.ar  1 Q8EM   0.0000 
 65 H19    119.5109   -88.9876    32.4875 H     1 Q8EM   0.0000 
 66 C11    118.9050   -86.9400    32.6900 C.ar  1 Q8EM   0.0000 
 67 C9     117.5710   -86.4880    34.6580 C.ar  1 Q8EM   0.0000 
 68 H9     117.0140   -85.7822    35.2563 H     1 Q8EM   0.0000 
 69 C12    119.5610   -86.4660    31.4360 C.ar  1 Q8EM   0.0000 
 70 C18    118.7660   -85.8070    30.4900 C.ar  1 Q8EM   0.0000 
 71 H18    117.6962   -85.7654    30.6322 H     1 Q8EM   0.0000 
 72 C16    120.6920   -85.2510    29.1730 C.ar  1 Q8EM   0.0000 
 73 H16    121.1258   -84.7681    28.3099 H     1 Q8EM   0.0000 
 74 C14    121.9150   -87.3200    32.0670 C.2   1 Q8EM   0.0000 
 75 N5     122.7120   -88.3000    31.6150 N.2   1 Q8EM   0.0000 
 76 N4     123.3780   -88.7390    32.7060 N.2   1 Q8EM   0.0000 
 77 N2     122.0690   -87.1340    33.3810 N.pl3 1 Q8EM   0.0000 
 78 H2     121.5977   -86.4599    33.9672 H     1 Q8EM   0.0000 
@<TRIPOS>BOND
  1   1  59  1   
  2   1  60  2   
  3   2  13  1   
  4   2  31  ar  
  5   2  59  ar  
  6   3  13  2   
  7   4  13  am  
  8   4  14  1   
  9   4  60  1   
 10   5  76  2   
 11   5  77  1   
 12   6   7  1   
 13   6   8  1   
 14   6   9  1   
 15   6  61  1   
 16   9  10  1   
 17   9  11  1   
 18   9  12  1   
 19  14  15  1   
 20  14  16  1   
 21  14  17  1   
 22  17  25  ar  
 23  17  67  ar  
 24  18  19  1   
 25  18  66  ar  
 26  18  67  ar  
 27  20  21  ar  
 28  20  69  ar  
 29  20  74  1   
 30  21  22  1   
 31  21  72  ar  
 32  23  24  1   
 33  23  70  ar  
 34  23  72  ar  
 35  25  26  1   
 36  25  64  ar  
 37  27  28  1   
 38  27  29  ar  
 39  27  59  ar  
 40  29  30  1   
 41  29  58  ar  
 42  31  32  1   
 43  31  58  ar  
 44  33  37  1   
 45  33  38  ar  
 46  33  44  ar  
 47  34  35  1   
 48  34  42  ar  
 49  34  44  ar  
 50  36  37  2   
 51  37  46  am  
 52  38  39  1   
 53  38  40  ar  
 54  40  41  1   
 55  40  42  ar  
 56  42  43  1   
 57  44  45  1   
 58  46  47  1   
 59  46  58  1   
 60  47  48  1   
 61  47  49  1   
 62  47  50  1   
 63  50  51  1   
 64  50  56  2   
 65  51  52  1   
 66  52  53  1   
 67  52  54  2   
 68  54  55  1   
 69  54  56  1   
 70  56  57  1   
 71  60  61  1   
 72  61  62  1   
 73  61  63  1   
 74  64  65  1   
 75  64  66  ar  
 76  66  69  1   
 77  67  68  1   
 78  69  70  ar  
 79  70  71  1   
 80  72  73  1   
 81  74  75  2   
 82  74  77  1   
 83  75  76  1   
 84  77  78  1   
@<TRIPOS>SUBSTRUCTURE
  1 Q8EM   2 GROUP 4 L **** 0

# MOE 2019.01 (io_trps.svl 2018.10)
