# created with PyMOL 2.3.5
@<TRIPOS>MOLECULE
8EM
79 85 1 0 0
SMALL
USER_CHARGES


@<TRIPOS>ATOM
      1 N1         -1.0280   -2.2790   -1.2210 N.pl3     1 8EM1        0.0000
      2 N3         -2.9290    3.6240    1.4490 N.pl3     1 8EM1        0.0000
      3 C4         -1.6030   -5.2350    1.0100 C.3       1 8EM1        0.0000
      4 C5         -2.6860   -6.3080    1.1340 C.3       1 8EM1        0.0000
      5 C6         -0.0940   -1.3120   -1.3760 C.2       1 8EM1        0.0000
      6 C7         -2.1800   -2.3270   -2.1240 C.3       1 8EM1        0.0000
      7 C8         -3.2830   -1.4560   -1.5790 C.2       1 8EM1        0.0000
      8 C10        -5.3110   -1.2270   -0.3260 C.2       1 8EM1        0.0000
      9 C13        -6.0730    2.1750    0.6680 C.2       1 8EM1        0.0000
     10 C15        -7.0970    2.9720    1.1730 C.2       1 8EM1        0.0000
     11 C17        -8.7260    1.4490    0.2870 C.2       1 8EM1        0.0000
     12 C20        -3.2740   -0.0950   -1.8300 C.2       1 8EM1        0.0000
     13 C21         2.1500   -2.3440    1.4540 C.2       1 8EM1        0.0000
     14 C22         3.1370   -1.4050    1.3710 C.2       1 8EM1        0.0000
     15 C24         2.0560   -0.3610   -0.5150 C.2       1 8EM1        0.0000
     16 C26         5.0220    2.6740   -0.4660 C.2       1 8EM1        0.0000
     17 C28         7.3090    3.3810   -0.2750 C.2       1 8EM1        0.0000
     18 O1          3.0870    1.6530   -1.2890 O.2       1 8EM1        0.0000
     19 C25         4.0150    1.5920   -0.5050 C.2       1 8EM1        0.0000
     20 C31         4.6230    4.0070   -0.5740 C.2       1 8EM1        0.0000
     21 C30         5.5680    5.0120   -0.5320 C.2       1 8EM1        0.0000
     22 C29         6.9070    4.7000   -0.3820 C.2       1 8EM1        0.0000
     23 C27         6.3750    2.3660   -0.3150 C.2       1 8EM1        0.0000
     24 N6          4.1250    0.5390    0.3280 N.pl3     1 8EM1        0.0000
     25 C32         5.3170    0.3900    1.1670 C.3       1 8EM1        0.0000
     26 C33         6.0070   -0.9070    0.8320 C.2       1 8EM1        0.0000
     27 O2          5.7200   -2.1090    1.3590 O.3       1 8EM1        0.0000
     28 C36         6.5350   -3.0360    0.8290 C.2       1 8EM1        0.0000
     29 C35         7.3550   -2.4300   -0.0480 C.2       1 8EM1        0.0000
     30 C34         7.0120   -1.0580   -0.0500 C.2       1 8EM1        0.0000
     31 C23         3.1010   -0.4120    0.3930 C.2       1 8EM1        0.0000
     32 C1          1.0840   -2.3160    0.5520 C.2       1 8EM1        0.0000
     33 C           1.0420   -1.3130   -0.4420 C.2       1 8EM1        0.0000
     34 O          -0.1890   -0.4750   -2.2550 O.2       1 8EM1        0.0000
     35 C2         -0.9040   -3.2100   -0.2380 C.2       1 8EM1        0.0000
     36 C3         -1.9710   -4.2670   -0.1160 C.3       1 8EM1        0.0000
     37 N           0.0870   -3.2350    0.6000 N.2       1 8EM1        0.0000
     38 C19        -4.2810    0.7070   -1.3330 C.2       1 8EM1        0.0000
     39 C11        -5.3070    0.1440   -0.5760 C.2       1 8EM1        0.0000
     40 C9         -4.3020   -2.0200   -0.8330 C.2       1 8EM1        0.0000
     41 C12        -6.3890    1.0020   -0.0340 C.2       1 8EM1        0.0000
     42 C18        -7.7220    0.6480   -0.2200 C.2       1 8EM1        0.0000
     43 C16        -8.4140    2.6060    0.9800 C.2       1 8EM1        0.0000
     44 C14        -4.6560    2.5670    0.8680 C.2       1 8EM1        0.0000
     45 N5         -3.5740    1.9010    0.4400 N.2       1 8EM1        0.0000
     46 N4         -2.5390    2.5730    0.8170 N.2       1 8EM1        0.0000
     47 N2         -4.2170    3.6420    1.4930 N.2       1 8EM1        0.0000
     48 H1         -2.3450    4.2950    1.8360 H         1 8EM1        0.0000
     49 H2         -1.5250   -4.6870    1.9490 H         1 8EM1        0.0000
     50 H3         -0.6470   -5.7080    0.7850 H         1 8EM1        0.0000
     51 H4         -2.4240   -6.9980    1.9370 H         1 8EM1        0.0000
     52 H5         -3.6420   -5.8360    1.3590 H         1 8EM1        0.0000
     53 H6         -2.7640   -6.8560    0.1950 H         1 8EM1        0.0000
     54 H7         -1.8850   -1.9650   -3.1090 H         1 8EM1        0.0000
     55 H8         -2.5360   -3.3540   -2.2060 H         1 8EM1        0.0000
     56 H9         -6.1040   -1.6680    0.2590 H         1 8EM1        0.0000
     57 H10        -6.8610    3.8750    1.7150 H         1 8EM1        0.0000
     58 H11        -9.7590    1.1720    0.1410 H         1 8EM1        0.0000
     59 H12        -2.4780    0.3390   -2.4160 H         1 8EM1        0.0000
     60 H13         2.1920   -3.1080    2.2170 H         1 8EM1        0.0000
     61 H14         3.9570   -1.4310    2.0730 H         1 8EM1        0.0000
     62 H15         2.0290    0.4080   -1.2720 H         1 8EM1        0.0000
     63 H16         8.3570    3.1440   -0.1590 H         1 8EM1        0.0000
     64 H17         3.5780    4.2520   -0.6920 H         1 8EM1        0.0000
     65 H18         5.2600    6.0440   -0.6150 H         1 8EM1        0.0000
     66 H19         7.6430    5.4900   -0.3500 H         1 8EM1        0.0000
     67 H20         6.6900    1.3370   -0.2310 H         1 8EM1        0.0000
     68 H21         5.9970    1.2220    0.9830 H         1 8EM1        0.0000
     69 H22         5.0240    0.3850    2.2170 H         1 8EM1        0.0000
     70 H23         6.5320   -4.0890    1.0670 H         1 8EM1        0.0000
     71 H24         8.1250   -2.9010   -0.6410 H         1 8EM1        0.0000
     72 H25         7.4720   -0.2800   -0.6410 H         1 8EM1        0.0000
     73 H26        -2.0490   -4.8150   -1.0550 H         1 8EM1        0.0000
     74 H27        -2.9270   -3.7940    0.1090 H         1 8EM1        0.0000
     75 H28        -4.2730    1.7690   -1.5300 H         1 8EM1        0.0000
     76 H29        -4.3060   -3.0840   -0.6440 H         1 8EM1        0.0000
     77 H30        -7.9720   -0.2540   -0.7600 H         1 8EM1        0.0000
     78 H31        -9.2060    3.2270    1.3730 H         1 8EM1        0.0000
     79 HN         -4.7879    4.3524    1.9283 H         1 8EM1        0.0000
@<TRIPOS>BOND
     1   29   30 1
     2   28   29 2
     3   26   30 2
     4   27   28 1
     5   25   26 1
     6   26   27 1
     7   24   25 1
     8    5   34 2
     9   24   31 1
    10   19   24 1
    11   15   31 2
    12   15   33 1
    13    5   33 1
    14    1    5 1
    15   14   31 1
    16   32   33 2
    17   18   19 2
    18    3    4 1
    19    3   36 1
    20    1    6 1
    21    1   35 1
    22   13   14 2
    23    6    7 1
    24   13   32 1
    25   32   37 1
    26   16   19 1
    27   35   37 2
    28   35   36 1
    29    7   40 2
    30    8   40 1
    31    7   12 1
    32   16   20 2
    33   16   23 1
    34    8   39 2
    35   20   21 1
    36   12   38 2
    37   17   23 2
    38    2   47 1
    39   44   47 2
    40    2   46 1
    41   38   39 1
    42   39   41 1
    43   21   22 2
    44   17   22 1
    45    9   44 1
    46   44   45 1
    47   45   46 2
    48    9   41 2
    49   41   42 1
    50    9   10 1
    51   11   42 2
    52   10   43 2
    53   11   43 1
    54    2   48 1
    55    3   49 1
    56    3   50 1
    57    4   51 1
    58    4   52 1
    59    4   53 1
    60    6   54 1
    61    6   55 1
    62    8   56 1
    63   10   57 1
    64   11   58 1
    65   12   59 1
    66   13   60 1
    67   14   61 1
    68   15   62 1
    69   17   63 1
    70   20   64 1
    71   21   65 1
    72   22   66 1
    73   23   67 1
    74   25   68 1
    75   25   69 1
    76   28   70 1
    77   29   71 1
    78   30   72 1
    79   36   73 1
    80   36   74 1
    81   38   75 1
    82   40   76 1
    83   42   77 1
    84   43   78 1
    85   79   47 1
@<TRIPOS>SUBSTRUCTURE
     1 8EM1        1 RESIDUE           4 A     8EM     0 ROOT
