# created with PyMOL 2.3.5
@<TRIPOS>MOLECULE
D2U
77 81 1 0 0
SMALL
USER_CHARGES


@<TRIPOS>ATOM
      1 C1          3.7430   -4.8430   -0.6350 C.2       1 D2U1        0.0000
      2 C2          2.8880   -3.8400   -1.0430 C.2       1 D2U1        0.0000
      3 C3          2.2110   -3.0740   -0.0920 C.2       1 D2U1        0.0000
      4 C4          2.4060   -3.3290    1.2670 C.2       1 D2U1        0.0000
      5 C5          3.2640   -4.3340    1.6610 C.2       1 D2U1        0.0000
      6 C6          3.9310   -5.0900    0.7140 C.2       1 D2U1        0.0000
      7 C7          4.4700   -5.6750   -1.6600 C.3       1 D2U1        0.0000
      8 C8          3.4750   -4.6100    3.1280 C.3       1 D2U1        0.0000
      9 C9          1.2940   -1.9980   -0.5220 C.2       1 D2U1        0.0000
     10 N10         0.3970   -1.4900    0.3460 N.pl3     1 D2U1        0.0000
     11 C11        -0.6310   -0.5570   -0.1230 C.3       1 D2U1        0.0000
     12 C12        -0.5660    0.7300    0.7000 C.3       1 D2U1        0.0000
     13 C13         0.7480    1.4230    0.4460 C.2       1 D2U1        0.0000
     14 C14         0.8540    2.3460   -0.5780 C.2       1 D2U1        0.0000
     15 C15         2.0550    2.9840   -0.8150 C.2       1 D2U1        0.0000
     16 C16         3.1620    2.6970   -0.0200 C.2       1 D2U1        0.0000
     17 C17         3.0500    1.7660    1.0110 C.2       1 D2U1        0.0000
     18 C18         1.8430    1.1380    1.2420 C.2       1 D2U1        0.0000
     19 C19         4.4560    3.3790   -0.2700 C.2       1 D2U1        0.0000
     20 C20         4.5660    4.3140   -1.2980 C.2       1 D2U1        0.0000
     21 C21         5.7720    4.9460   -1.5260 C.2       1 D2U1        0.0000
     22 C22         6.8690    4.6530   -0.7370 C.2       1 D2U1        0.0000
     23 C23         6.7650    3.7250    0.2840 C.2       1 D2U1        0.0000
     24 C24         5.5630    3.0920    0.5250 C.2       1 D2U1        0.0000
     25 C25         0.4490   -1.8710    1.7600 C.3       1 D2U1        0.0000
     26 O26         1.3480   -1.5710   -1.6590 O.2       1 D2U1        0.0000
     27 C27        -1.9910   -1.1870    0.0350 C.2       1 D2U1        0.0000
     28 O28        -2.1440   -2.1140    0.8010 O.2       1 D2U1        0.0000
     29 N29        -3.0360   -0.7190   -0.6760 N.pl3     1 D2U1        0.0000
     30 C30        -4.3590   -1.3310   -0.5220 C.3       1 D2U1        0.0000
     31 C31        -4.4650   -2.5310   -1.4270 C.2       1 D2U1        0.0000
     32 C32        -5.4380   -0.3130   -0.8950 C.3       1 D2U1        0.0000
     33 C33        -5.4110    0.8300    0.0870 C.2       1 D2U1        0.0000
     34 C34        -6.1720    0.9580    1.1850 C.2       1 D2U1        0.0000
     35 N35        -5.8680    2.1250    1.8300 N.pl3     1 D2U1        0.0000
     36 C36        -4.8790    2.7950    1.1460 C.2       1 D2U1        0.0000
     37 C37        -4.5450    2.0100    0.0270 C.2       1 D2U1        0.0000
     38 C38        -4.2140    3.9980    1.3570 C.2       1 D2U1        0.0000
     39 C39        -3.2440    4.4090    0.4690 C.2       1 D2U1        0.0000
     40 C40        -2.9230    3.6340   -0.6370 C.2       1 D2U1        0.0000
     41 C41        -3.5580    2.4450   -0.8600 C.2       1 D2U1        0.0000
     42 O42        -3.5330   -2.8430   -2.1290 O.co2     1 D2U1        0.0000
     43 O43        -5.5970   -3.2530   -1.4540 O.3       1 D2U1        0.0000
     44 H2          2.7427   -3.6478   -2.0958 H         1 D2U1        0.0000
     45 H4          1.8858   -2.7402    2.0081 H         1 D2U1        0.0000
     46 H6          4.6013   -5.8763    1.0284 H         1 D2U1        0.0000
     47 H11        -0.4583   -0.3249   -1.1739 H         1 D2U1        0.0000
     48 H122       -0.6502    0.4882    1.7595 H         1 D2U1        0.0000
     49 H123       -1.3856    1.3879    0.4111 H         1 D2U1        0.0000
     50 H14        -0.0049    2.5683   -1.1939 H         1 D2U1        0.0000
     51 H15         2.1361    3.7044   -1.6155 H         1 D2U1        0.0000
     52 H17         3.9061    1.5364    1.6280 H         1 D2U1        0.0000
     53 H18         1.7531    0.4225    2.0460 H         1 D2U1        0.0000
     54 H20         3.7096    4.5435   -1.9147 H         1 D2U1        0.0000
     55 H21         5.8588    5.6706   -2.3221 H         1 D2U1        0.0000
     56 H22         7.8104    5.1503   -0.9183 H         1 D2U1        0.0000
     57 H23         7.6265    3.4957    0.8936 H         1 D2U1        0.0000
     58 H24         5.4806    2.3752    1.3287 H         1 D2U1        0.0000
     59 H29        -2.9076    0.0529   -1.3145 H         1 D2U1        0.0000
     60 H30        -4.4965   -1.6434    0.5132 H         1 D2U1        0.0000
     61 H322       -6.4160   -0.7934   -0.8665 H         1 D2U1        0.0000
     62 H323       -5.2484    0.0661   -1.8992 H         1 D2U1        0.0000
     63 H34        -6.9147    0.2449    1.5110 H         1 D2U1        0.0000
     64 H38        -4.4571    4.6082    2.2143 H         1 D2U1        0.0000
     65 H39        -2.7283    5.3433    0.6351 H         1 D2U1        0.0000
     66 H40        -2.1649    3.9738   -1.3271 H         1 D2U1        0.0000
     67 H41        -3.2977    1.8440   -1.7187 H         1 D2U1        0.0000
     68 H35        -6.3044    2.4474    2.6819 H         1 D2U1        0.0000
     69 H81         4.1807   -5.4323    3.2457 H         1 D2U1        0.0000
     70 H82         3.8730   -3.7179    3.6117 H         1 D2U1        0.0000
     71 H83         2.5239   -4.8789    3.5876 H         1 D2U1        0.0000
     72 H71         5.0948   -6.4111   -1.1543 H         1 D2U1        0.0000
     73 H72         5.0961   -5.0283   -2.2747 H         1 D2U1        0.0000
     74 H73         3.7451   -6.1870   -2.2928 H         1 D2U1        0.0000
     75 H251       -0.4394   -1.4986    2.2701 H         1 D2U1        0.0000
     76 H252        0.4863   -2.9573    1.8422 H         1 D2U1        0.0000
     77 H253        1.3389   -1.4410    2.2197 H         1 D2U1        0.0000
@<TRIPOS>BOND
     1   39   40 1
     2   40   41 2
     3   38   39 2
     4   37   41 1
     5   36   38 1
     6   36   37 2
     7   33   37 1
     8   31   42 2
     9   35   36 1
    10   32   33 1
    11   30   32 1
    12   33   34 2
    13   30   31 1
    14   31   43 1
    15   34   35 1
    16   29   30 1
    17   27   29 1
    18   27   28 2
    19   11   27 1
    20    1    7 1
    21    1    2 2
    22    2    3 1
    23    9   26 2
    24    1    6 1
    25   10   11 1
    26   11   12 1
    27    9   10 1
    28    3    9 1
    29   10   25 1
    30    3    4 2
    31    5    6 2
    32   12   13 1
    33    4    5 1
    34    5    8 1
    35   13   14 2
    36   13   18 1
    37   14   15 1
    38   17   18 2
    39   15   16 2
    40   16   17 1
    41   16   19 1
    42   19   24 2
    43   19   20 1
    44   23   24 1
    45   20   21 2
    46   22   23 2
    47   21   22 1
    48   44    2 1
    49   45    4 1
    50   46    6 1
    51   47   11 1
    52   48   12 1
    53   49   12 1
    54   50   14 1
    55   51   15 1
    56   52   17 1
    57   53   18 1
    58   54   20 1
    59   55   21 1
    60   56   22 1
    61   57   23 1
    62   58   24 1
    63   59   29 1
    64   60   30 1
    65   61   32 1
    66   62   32 1
    67   63   34 1
    68   64   38 1
    69   65   39 1
    70   66   40 1
    71   67   41 1
    72   68   35 1
    73   69    8 1
    74   70    8 1
    75   71    8 1
    76   72    7 1
    77   73    7 1
    78   74    7 1
    79   75   25 1
    80   76   25 1
    81   77   25 1
@<TRIPOS>SUBSTRUCTURE
     1 D2U1        1 RESIDUE           4 A     D2U     0 ROOT
