@<TRIPOS>MOLECULE
GBU
22 23 1 0 0
SMALL
NO_CHARGES


@<TRIPOS>ATOM
      1 C10       107.5850  111.4260   75.9880 C.ar      1 GBU451      0.0000
      2 C15       110.8070  107.5050   75.3930 C.3       1 GBU451      0.0000
      3 C17       109.8170  107.6110   72.7350 C.ar      1 GBU451      0.0000
      4 C20       110.3410  108.2730   70.4700 C.ar      1 GBU451      0.0000
      5 C21       111.2100  109.3390   70.9820 C.ar      1 GBU451      0.0000
      6 C22       111.3560  109.5090   72.3350 C.ar      1 GBU451      0.0000
      7 C01       112.4950  108.0930   76.6560 C.3       1 GBU451      0.0000
      8 C03       110.5300  108.0700   77.6460 C.3       1 GBU451      0.0000
      9 C04       110.5040  109.5580   77.5840 C.3       1 GBU451      0.0000
     10 C05       109.5220  110.0990   76.5150 C.ar      1 GBU451      0.0000
     11 C06       109.6580  109.7870   75.2210 C.ar      1 GBU451      0.0000
     12 C07       108.7430  110.3000   74.2820 C.ar      1 GBU451      0.0000
     13 C08       107.7150  111.1190   74.6990 C.ar      1 GBU451      0.0000
     14 C12       108.5000  110.9130   76.9310 C.ar      1 GBU451      0.0000
     15 C14       110.8350  108.8500   74.7480 C.3       1 GBU451      0.0000
     16 C16       110.6680  108.6550   73.2360 C.ar      1 GBU451      0.0000
     17 C18       109.6650  107.4340   71.3640 C.ar      1 GBU451      0.0000
     18 C19       108.7960  106.3670   70.8580 C.3       1 GBU451      0.0000
     19 N02       111.3650  107.4950   76.6760 N.4       1 GBU451      0.0000
     20 O09       106.7590  111.6560   73.7210 O.3       1 GBU451      0.0000
     21 O11       106.4800  112.3060   76.4340 O.3       1 GBU451      0.0000
     22 CL1       108.3240  111.3260   78.6600 C         1 GBU451      0.0000
@<TRIPOS>BOND
     1    1   13 ar
     2    1   14 ar
     3    1   21 1
     4    2   15 1
     5    2   19 1
     6    3   16 ar
     7    3   17 ar
     8    4    5 ar
     9    4   17 ar
    10    5    6 ar
    11    6   16 ar
    12    7   19 1
    13    8    9 1
    14    8   19 1
    15    9   10 1
    16   10   11 ar
    17   10   14 ar
    18   11   12 ar
    19   11   15 1
    20   12   13 ar
    21   13   20 1
    22   15   16 1
    23   17   18 1
@<TRIPOS>SUBSTRUCTURE
     1 GBU451      1 RESIDUE           4 R     GBU     0 ROOT
