# created with PyMOL 2.3.5
@<TRIPOS>MOLECULE
4OT
53 57 1                 
SMALL
USER_CHARGES
@<TRIPOS>ATOM
1	  C1	2.044	3.234	-0.495	C.3	1	4OT0	0.000	
2	  C2	0.566	3.038	-0.280	C.2	1	4OT0	0.000	
3	  N3	-0.169	3.643	0.611	N.2	1	4OT0	0.000	
4	  N4	-1.387	3.239	0.510	N.2	1	4OT0	0.000	
5	  C5	-1.471	2.356	-0.456	C.2	1	4OT0	0.000	
6	  O6	-0.235	2.212	-0.975	O.3	1	4OT0	0.000	
7	  C7	-2.693	1.650	-0.895	C.2	1	4OT0	0.000	
8	  C8	2.824	2.394	0.518	C.3	1	4OT0	0.000	
9	 C11	1.512	0.281	0.193	C.2	1	4OT0	0.000	
10	 C12	1.486	-1.115	-0.264	C.2	1	4OT0	0.000	
11	 N12	2.673	0.965	0.204	N.pl3	1	4OT0	0.000	
12	 C13	4.003	0.405	-0.099	C.3	1	4OT0	0.000	
13	 C14	5.002	1.342	0.625	C.3	1	4OT0	0.000	
14	 O23	0.486	0.820	0.562	O.2	1	4OT0	0.000	
15	 C24	4.328	2.726	0.430	C.3	1	4OT0	0.000	
16	 C25	3.011	-3.536	-2.551	C.3	1	4OT0	0.000	
17	 C26	2.177	-2.832	-1.511	C.2	1	4OT0	0.000	
18	 N27	2.298	-1.592	-1.199	N.2	1	4OT0	0.000	
19	 C28	0.620	-2.062	0.241	C.2	1	4OT0	0.000	
20	 S29	0.944	-3.579	-0.594	S.3	1	4OT0	0.000	
21	 C30	-0.395	-1.844	1.290	C.2	1	4OT0	0.000	
22	 C34	-0.051	-1.190	2.474	C.2	1	4OT0	0.000	
23	 C35	-1.004	-0.989	3.451	C.2	1	4OT0	0.000	
24	 C36	-2.301	-1.434	3.260	C.2	1	4OT0	0.000	
25	 C37	-2.651	-2.083	2.090	C.2	1	4OT0	0.000	
26	 C38	-1.709	-2.287	1.100	C.2	1	4OT0	0.000	
27	 F39	-2.053	-2.917	-0.044	 F	1	4OT0	0.000	
28	 C44	-2.615	0.651	-1.867	C.2	1	4OT0	0.000	
29	 C45	-3.760	-0.004	-2.272	C.2	1	4OT0	0.000	
30	 C46	-4.983	0.327	-1.717	C.2	1	4OT0	0.000	
31	 C47	-5.068	1.316	-0.753	C.2	1	4OT0	0.000	
32	 C48	-3.930	1.975	-0.335	C.2	1	4OT0	0.000	
33	  H1	2.309	2.922	-1.506	 H	1	4OT0	0.000	
34	  H2	2.294	4.287	-0.363	 H	1	4OT0	0.000	
35	  H3	2.458	2.594	1.525	 H	1	4OT0	0.000	
36	  H4	4.085	-0.609	0.290	 H	1	4OT0	0.000	
37	  H5	4.184	0.416	-1.174	 H	1	4OT0	0.000	
38	  H6	5.078	1.091	1.683	 H	1	4OT0	0.000	
39	  H7	5.981	1.314	0.147	 H	1	4OT0	0.000	
40	  H8	4.575	3.141	-0.548	 H	1	4OT0	0.000	
41	  H9	4.619	3.412	1.225	 H	1	4OT0	0.000	
42	 H10	2.523	-3.455	-3.523	 H	1	4OT0	0.000	
43	 H11	3.997	-3.073	-2.599	 H	1	4OT0	0.000	
44	 H12	3.115	-4.587	-2.283	 H	1	4OT0	0.000	
45	 H13	0.960	-0.842	2.626	 H	1	4OT0	0.000	
46	 H14	-0.738	-0.484	4.367	 H	1	4OT0	0.000	
47	 H15	-3.042	-1.273	4.029	 H	1	4OT0	0.000	
48	 H16	-3.665	-2.429	1.948	 H	1	4OT0	0.000	
49	 H17	-1.661	0.392	-2.301	 H	1	4OT0	0.000	
50	 H18	-3.701	-0.778	-3.023	 H	1	4OT0	0.000	
51	 H19	-5.876	-0.189	-2.037	 H	1	4OT0	0.000	
52	 H20	-6.025	1.571	-0.324	 H	1	4OT0	0.000	
53	 H21	-3.996	2.744	0.420	 H	1	4OT0	0.000	
@<TRIPOS>BOND
1 28 29 2
2 29 30 1
3 7 28 1
4 3 4 1
5 4 5 2
6 2 3 2
7 9 14 2
8 30 31 2
9 5 7 1
10 7 32 2
11 5 6 1
12 11 12 1
13 12 13 1
14 10 18 1
15 17 18 2
16 9 11 1
17 9 10 1
18 2 6 1
19 1 2 1
20 16 17 1
21 31 32 1
22 8 11 1
23 10 19 2
24 17 20 1
25 13 15 1
26 1 8 1
27 8 15 1
28 19 20 1
29 19 21 1
30 21 22 2
31 22 23 1
32 21 26 1
33 23 24 2
34 26 27 1
35 25 26 2
36 24 25 1
37 1 33 1
38 1 34 1
39 8 35 1
40 12 36 1
41 12 37 1
42 13 38 1
43 13 39 1
44 15 40 1
45 15 41 1
46 16 42 1
47 16 43 1
48 16 44 1
49 22 45 1
50 23 46 1
51 24 47 1
52 25 48 1
53 28 49 1
54 29 50 1
55 30 51 1
56 31 52 1
57 32 53 1
@<TRIPOS>SUBSTRUCTURE
1	4OT0	1	GROUP	1 ****	4OT
