# created with PyMOL 2.3.5
@<TRIPOS>MOLECULE
TEP
21 22 1 0 0
SMALL
USER_CHARGES


@<TRIPOS>ATOM
      1 C1          1.2820   -0.0030    2.7330 C.3       1 TEP1        0.0000
      2 N1          0.6250   -0.0020    1.4230 N.pl3     1 TEP1        0.0000
      3 C2         -0.7170   -0.0000    1.3560 C.2       1 TEP1        0.0000
      4 O2         -1.3620    0.0000    2.3870 O.2       1 TEP1        0.0000
      5 N3         -1.3660    0.0000    0.1770 N.pl3     1 TEP1        0.0000
      6 C3         -2.8310    0.0020    0.1470 C.3       1 TEP1        0.0000
      7 C4         -0.6500   -0.0000   -1.0090 C.2       1 TEP1        0.0000
      8 C5          0.7370   -0.0020   -0.9550 C.2       1 TEP1        0.0000
      9 C6          1.3760    0.0010    0.3030 C.2       1 TEP1        0.0000
     10 O6          2.5920    0.0050    0.3760 O.2       1 TEP1        0.0000
     11 N7          1.1750   -0.0020   -2.2640 N.pl3     1 TEP1        0.0000
     12 C8          0.0770   -0.0000   -3.0460 C.2       1 TEP1        0.0000
     13 N9         -0.9960    0.0000   -2.2990 N.2       1 TEP1        0.0000
     14 H11         0.9840   -0.8920    3.2880 H         1 TEP1        0.0000
     15 H12         2.3630   -0.0040    2.5970 H         1 TEP1        0.0000
     16 H13         0.9870    0.8870    3.2880 H         1 TEP1        0.0000
     17 H31        -3.2140    0.0020    1.1680 H         1 TEP1        0.0000
     18 H32        -3.1820    0.8920   -0.3730 H         1 TEP1        0.0000
     19 H33        -3.1850   -0.8870   -0.3730 H         1 TEP1        0.0000
     20 HN7         2.0970   -0.0030   -2.5640 H         1 TEP1        0.0000
     21 H8          0.0840   -0.0010   -4.1260 H         1 TEP1        0.0000
@<TRIPOS>BOND
     1    1    2 1
     2    1   14 1
     3    1   15 1
     4    1   16 1
     5    2    3 1
     6    2    9 1
     7    3    4 2
     8    3    5 1
     9    5    6 1
    10    5    7 1
    11    6   17 1
    12    6   18 1
    13    6   19 1
    14    7    8 2
    15    7   13 1
    16    8    9 1
    17    8   11 1
    18    9   10 2
    19   11   12 1
    20   11   20 1
    21   12   13 2
    22   12   21 1
@<TRIPOS>SUBSTRUCTURE
     1 TEP1        1 RESIDUE           4 A     TEP     0 ROOT
