# created with PyMOL 2.3.5
@<TRIPOS>MOLECULE
POV
134 133 1               
SMALL
USER_CHARGES
@<TRIPOS>ATOM
1	   N	-2.237	-0.007	-3.925	N.4	1	POV0	0.000	
2	   P	-0.695	-3.888	-2.466	P.3	1	POV0	0.000	
3	  C1	0.435	-4.894	-0.263	C.3	1	POV0	0.000	
4	  C2	0.606	-4.559	1.220	C.3	1	POV0	0.000	
5	  C3	-0.768	-4.334	1.854	C.3	1	POV0	0.000	
6	C210	13.055	0.054	1.541	C.2	1	POV0	0.000	
7	C310	-12.197	3.004	0.628	C.3	1	POV0	0.000	
8	 C11	-2.250	-2.450	-4.095	C.3	1	POV0	0.000	
9	 O11	-0.323	-3.863	-0.900	O.3	1	POV0	0.000	
10	C211	12.681	1.192	0.627	C.3	1	POV0	0.000	
11	C311	-13.553	3.174	1.316	C.3	1	POV0	0.000	
12	 C12	-3.106	-1.182	-4.076	C.3	1	POV0	0.000	
13	 O12	-1.660	-2.646	-2.808	O.3	1	POV0	0.000	
14	C212	13.669	2.345	0.816	C.3	1	POV0	0.000	
15	C312	-14.367	4.241	0.582	C.3	1	POV0	0.000	
16	 C13	-1.192	-0.035	-4.957	C.3	1	POV0	0.000	
17	 O13	0.599	-3.781	-3.304	O.co2	1	POV0	0.000	
18	C213	13.289	3.500	-0.112	C.3	1	POV0	0.000	
19	C313	-15.724	4.411	1.270	C.3	1	POV0	0.000	
20	 C14	-3.037	1.216	-4.072	C.3	1	POV0	0.000	
21	 O14	-1.418	-5.211	-2.802	O.co2	1	POV0	0.000	
22	C214	14.277	4.653	0.078	C.3	1	POV0	0.000	
23	C314	-16.538	5.478	0.535	C.3	1	POV0	0.000	
24	 C15	-1.612	-0.027	-2.595	C.3	1	POV0	0.000	
25	C215	13.897	5.808	-0.851	C.3	1	POV0	0.000	
26	C315	-17.894	5.648	1.223	C.3	1	POV0	0.000	
27	C216	14.885	6.961	-0.661	C.3	1	POV0	0.000	
28	C316	-18.708	6.715	0.489	C.3	1	POV0	0.000	
29	C217	14.505	8.116	-1.589	C.3	1	POV0	0.000	
30	C218	15.493	9.269	-1.400	C.3	1	POV0	0.000	
31	 C21	2.735	-3.513	1.448	C.2	1	POV0	0.000	
32	 O21	1.406	-3.355	1.356	O.3	1	POV0	0.000	
33	 C22	3.629	-2.308	1.591	C.3	1	POV0	0.000	
34	 O22	3.216	-4.621	1.416	O.co2	1	POV0	0.000	
35	 C23	5.088	-2.762	1.674	C.3	1	POV0	0.000	
36	 C24	5.995	-1.539	1.820	C.3	1	POV0	0.000	
37	 C25	7.454	-1.993	1.903	C.3	1	POV0	0.000	
38	 C26	8.362	-0.770	2.049	C.3	1	POV0	0.000	
39	 C27	9.820	-1.225	2.132	C.3	1	POV0	0.000	
40	 C28	10.728	-0.001	2.277	C.3	1	POV0	0.000	
41	 C29	12.165	-0.449	2.360	C.2	1	POV0	0.000	
42	 C31	-2.714	-2.994	1.538	C.2	1	POV0	0.000	
43	 O31	-1.483	-3.312	1.108	O.3	1	POV0	0.000	
44	 C32	-3.516	-1.943	0.814	C.3	1	POV0	0.000	
45	 O32	-3.179	-3.550	2.504	O.co2	1	POV0	0.000	
46	 C33	-4.872	-1.773	1.502	C.3	1	POV0	0.000	
47	 C34	-5.686	-0.706	0.768	C.3	1	POV0	0.000	
48	 C35	-7.042	-0.536	1.456	C.3	1	POV0	0.000	
49	 C36	-7.857	0.531	0.721	C.3	1	POV0	0.000	
50	 C37	-9.212	0.701	1.409	C.3	1	POV0	0.000	
51	 C38	-10.027	1.768	0.675	C.3	1	POV0	0.000	
52	 C39	-11.383	1.938	1.363	C.3	1	POV0	0.000	
53	 H29	12.460	-1.184	3.094	 H	1	POV0	0.000	
54	  H1	1.416	-4.967	-0.734	 H	1	POV0	0.000	
55	 H1A	-0.088	-5.845	-0.363	 H	1	POV0	0.000	
56	  H2	1.107	-5.386	1.724	 H	1	POV0	0.000	
57	  H3	-1.336	-5.264	1.831	 H	1	POV0	0.000	
58	 H3A	-0.643	-4.009	2.886	 H	1	POV0	0.000	
59	H310	-12.350	2.697	-0.406	 H	1	POV0	0.000	
60	H31A	-11.658	3.951	0.649	 H	1	POV0	0.000	
61	H210	14.058	-0.347	1.521	 H	1	POV0	0.000	
62	 H11	-2.876	-3.307	-4.342	 H	1	POV0	0.000	
63	H11A	-1.464	-2.347	-4.843	 H	1	POV0	0.000	
64	H211	12.713	0.852	-0.408	 H	1	POV0	0.000	
65	H21A	11.674	1.534	0.866	 H	1	POV0	0.000	
66	H311	-14.092	2.227	1.295	 H	1	POV0	0.000	
67	H31B	-13.400	3.482	2.351	 H	1	POV0	0.000	
68	 H12	-3.804	-1.227	-3.240	 H	1	POV0	0.000	
69	H12A	-3.662	-1.105	-5.010	 H	1	POV0	0.000	
70	 H22	3.501	-1.656	0.727	 H	1	POV0	0.000	
71	H212	13.637	2.684	1.852	 H	1	POV0	0.000	
72	H22A	3.365	-1.765	2.499	 H	1	POV0	0.000	
73	H21B	14.676	2.003	0.577	 H	1	POV0	0.000	
74	 H32	-2.977	-0.996	0.836	 H	1	POV0	0.000	
75	H312	-13.828	5.188	0.603	 H	1	POV0	0.000	
76	H32A	-3.669	-2.251	-0.220	 H	1	POV0	0.000	
77	H31C	-14.521	3.934	-0.453	 H	1	POV0	0.000	
78	 H13	-1.655	-0.020	-5.944	 H	1	POV0	0.000	
79	H13A	-0.547	0.836	-4.845	 H	1	POV0	0.000	
80	H13B	-0.598	-0.943	-4.848	 H	1	POV0	0.000	
81	 H23	5.216	-3.415	2.538	 H	1	POV0	0.000	
82	H213	13.321	3.160	-1.147	 H	1	POV0	0.000	
83	H23A	5.352	-3.305	0.767	 H	1	POV0	0.000	
84	H21C	12.282	3.842	0.127	 H	1	POV0	0.000	
85	 H33	-5.411	-2.720	1.481	 H	1	POV0	0.000	
86	H313	-16.263	3.464	1.248	 H	1	POV0	0.000	
87	H33A	-4.719	-1.465	2.537	 H	1	POV0	0.000	
88	H31D	-15.570	4.719	2.304	 H	1	POV0	0.000	
89	 H14	-3.812	1.237	-3.306	 H	1	POV0	0.000	
90	H14A	-2.392	2.088	-3.960	 H	1	POV0	0.000	
91	H14B	-3.500	1.231	-5.058	 H	1	POV0	0.000	
92	 H24	5.867	-0.887	0.956	 H	1	POV0	0.000	
93	H214	14.244	4.992	1.113	 H	1	POV0	0.000	
94	H24A	5.731	-0.996	2.727	 H	1	POV0	0.000	
95	H21D	15.284	4.311	-0.161	 H	1	POV0	0.000	
96	 H34	-5.147	0.241	0.789	 H	1	POV0	0.000	
97	H314	-15.998	6.425	0.556	 H	1	POV0	0.000	
98	H34A	-5.839	-1.014	-0.266	 H	1	POV0	0.000	
99	H31E	-16.691	5.170	-0.499	 H	1	POV0	0.000	
100	 H15	-0.803	-0.757	-2.585	 H	1	POV0	0.000	
101	H15A	-1.214	0.961	-2.366	 H	1	POV0	0.000	
102	H15B	-2.357	-0.301	-1.848	 H	1	POV0	0.000	
103	 H25	7.582	-2.646	2.767	 H	1	POV0	0.000	
104	H215	13.929	5.468	-1.886	 H	1	POV0	0.000	
105	H25A	7.718	-2.536	0.996	 H	1	POV0	0.000	
106	H21E	12.889	6.150	-0.612	 H	1	POV0	0.000	
107	 H35	-7.582	-1.483	1.435	 H	1	POV0	0.000	
108	H315	-18.433	4.701	1.202	 H	1	POV0	0.000	
109	H35A	-6.889	-0.228	2.490	 H	1	POV0	0.000	
110	H31F	-17.740	5.956	2.257	 H	1	POV0	0.000	
111	 H26	8.233	-0.118	1.185	 H	1	POV0	0.000	
112	H216	14.852	7.300	0.374	 H	1	POV0	0.000	
113	H26A	8.097	-0.228	2.956	 H	1	POV0	0.000	
114	H21F	15.892	6.619	-0.900	 H	1	POV0	0.000	
115	 H36	-7.317	1.478	0.743	 H	1	POV0	0.000	
116	H316	-19.674	6.836	0.979	 H	1	POV0	0.000	
117	H36A	-8.010	0.223	-0.313	 H	1	POV0	0.000	
118	H31G	-18.169	7.662	0.510	 H	1	POV0	0.000	
119	H31H	-18.861	6.407	-0.546	 H	1	POV0	0.000	
120	 H27	9.949	-1.877	2.996	 H	1	POV0	0.000	
121	H217	14.537	7.776	-2.625	 H	1	POV0	0.000	
122	H27A	10.084	-1.767	1.225	 H	1	POV0	0.000	
123	H21G	13.498	8.458	-1.350	 H	1	POV0	0.000	
124	 H37	-9.752	-0.247	1.388	 H	1	POV0	0.000	
125	H37A	-9.059	1.008	2.444	 H	1	POV0	0.000	
126	 H28	10.599	0.651	1.413	 H	1	POV0	0.000	
127	H218	15.460	9.608	-0.365	 H	1	POV0	0.000	
128	H28A	10.464	0.541	3.185	 H	1	POV0	0.000	
129	H21H	16.500	8.927	-1.639	 H	1	POV0	0.000	
130	H21J	15.222	10.092	-2.061	 H	1	POV0	0.000	
131	 H38	-9.488	2.715	0.696	 H	1	POV0	0.000	
132	H38A	-10.180	1.460	-0.359	 H	1	POV0	0.000	
133	 H39	-11.230	2.245	2.397	 H	1	POV0	0.000	
134	H39A	-11.922	0.990	1.342	 H	1	POV0	0.000	
@<TRIPOS>BOND
1 1 12 1
2 1 16 1
3 1 20 1
4 1 24 1
5 2 9 1
6 2 13 1
7 2 17 1
8 2 21 2
9 3 4 1
10 3 9 1
11 3 54 1
12 3 55 1
13 4 5 1
14 4 32 1
15 4 56 1
16 5 43 1
17 5 57 1
18 5 58 1
19 6 10 1
20 6 41 2
21 6 61 1
22 7 11 1
23 7 52 1
24 7 59 1
25 7 60 1
26 8 12 1
27 8 13 1
28 8 62 1
29 8 63 1
30 10 14 1
31 10 64 1
32 10 65 1
33 11 15 1
34 11 66 1
35 11 67 1
36 12 68 1
37 12 69 1
38 14 18 1
39 14 71 1
40 14 73 1
41 15 19 1
42 15 75 1
43 15 77 1
44 16 78 1
45 16 79 1
46 16 80 1
47 18 22 1
48 18 82 1
49 18 84 1
50 19 23 1
51 19 86 1
52 19 88 1
53 20 89 1
54 20 90 1
55 20 91 1
56 22 25 1
57 22 93 1
58 22 95 1
59 23 26 1
60 23 97 1
61 23 99 1
62 24 100 1
63 24 101 1
64 24 102 1
65 25 27 1
66 25 104 1
67 25 106 1
68 26 28 1
69 26 108 1
70 26 110 1
71 27 29 1
72 27 112 1
73 27 114 1
74 28 116 1
75 28 118 1
76 28 119 1
77 29 30 1
78 29 121 1
79 29 123 1
80 30 127 1
81 30 129 1
82 30 130 1
83 31 32 1
84 31 33 1
85 31 34 2
86 33 35 1
87 33 70 1
88 33 72 1
89 35 36 1
90 35 81 1
91 35 83 1
92 36 37 1
93 36 92 1
94 36 94 1
95 37 38 1
96 37 103 1
97 37 105 1
98 38 39 1
99 38 111 1
100 38 113 1
101 39 40 1
102 39 120 1
103 39 122 1
104 40 41 1
105 40 126 1
106 40 128 1
107 41 53 1
108 42 43 1
109 42 44 1
110 42 45 2
111 44 46 1
112 44 74 1
113 44 76 1
114 46 47 1
115 46 85 1
116 46 87 1
117 47 48 1
118 47 96 1
119 47 98 1
120 48 49 1
121 48 107 1
122 48 109 1
123 49 50 1
124 49 115 1
125 49 117 1
126 50 51 1
127 50 124 1
128 50 125 1
129 51 52 1
130 51 131 1
131 51 132 1
132 52 133 1
133 52 134 1
@<TRIPOS>SUBSTRUCTURE
1	POV0	1	GROUP	1 ****	POV
