@<TRIPOS>MOLECULE
    9DZ
   90    92     0     0     0
SMALL
USER_CHARGES


@<TRIPOS>ATOM
      1 X         -15.7000   31.6660    3.5830 N.4        1 9DZ      0.000000
      2 X         -14.9440   32.8930    3.8890 C.3        1 9DZ      0.000000
      3 X         -13.4250   32.6340    3.9650 C.2        1 9DZ      0.000000
      4 X         -12.6350   33.5430    3.7110 O.2        1 9DZ      0.000000
      5 X         -15.3860   33.6500    5.1700 C.3        1 9DZ      0.000000
      6 X         -16.8400   33.4900    5.6290 C.2        1 9DZ      0.000000
      7 X         -17.1480   34.0350    6.7120 O.2        1 9DZ      0.000000
      8 X         -17.6420   32.8420    4.9270 O.3        1 9DZ      0.000000
      9 X         -15.1031   33.5743    3.0532 H          1 9DZ      0.000000
     10 X         -14.7483   33.3087    5.9855 H          1 9DZ      0.000000
     11 X         -15.1963   34.7123    5.0159 H          1 9DZ      0.000000
     12 X         -15.6518   31.4793    2.5916 H          1 9DZ      0.000000
     13 X         -15.3015   30.8897    4.0915 H          1 9DZ      0.000000
     14 X         -16.6647   31.7874    3.8562 H          1 9DZ      0.000000
     15 X         -18.2053   33.4491    4.4415 H          1 9DZ      0.000000
     16 X          -7.9410   25.8230    8.2370 C.3        2 9DZ      0.000000
     17 X          -6.7260   25.8260    7.2930 C.3        2 9DZ      0.000000
     18 X          -3.6090   27.9570    7.8550 C.ar       2 9DZ      0.000000
     19 X          -5.3270   29.4240    7.0250 C.ar       2 9DZ      0.000000
     20 X          -6.2350   28.3650    6.9430 C.ar       2 9DZ      0.000000
     21 X          -7.6010   28.6640    6.4610 C.ar       2 9DZ      0.000000
     22 X          -9.3160   28.5320    4.7750 C.ar       2 9DZ      0.000000
     23 X         -10.1820   29.2370    5.6140 C.ar       2 9DZ      0.000000
     24 X          -9.7570   29.6610    6.8720 C.ar       2 9DZ      0.000000
     25 X          -8.4690   29.3710    7.2960 C.ar       2 9DZ      0.000000
     26 X         -11.5960   29.5720    5.1650 C.3        2 9DZ      0.000000
     27 X          -5.8240   27.0710    7.3340 C.ar       2 9DZ      0.000000
     28 X          -4.5110   26.8890    7.7830 C.ar       2 9DZ      0.000000
     29 X          -4.0280   29.2240    7.4740 C.ar       2 9DZ      0.000000
     30 X          -8.0260   28.2440    5.2010 C.ar       2 9DZ      0.000000
     31 X         -11.6720   30.9360    4.4380 C.3        2 9DZ      0.000000
     32 X         -10.9840   30.8480    3.0700 C.2        2 9DZ      0.000000
     33 X          -2.0160   26.6690    9.0630 C.3        2 9DZ      0.000000
     34 X         -13.0520   31.3970    4.3130 N.am       2 9DZ      0.000000
     35 X          -9.8940   31.3990    2.9230 O.2        2 9DZ      0.000000
     36 X          -2.3120   27.8250    8.2910 O.3        2 9DZ      0.000000
     37 X          -6.1097   24.9630    7.5450 H          2 9DZ      0.000000
     38 X          -7.0872   25.7004    6.2723 H          2 9DZ      0.000000
     39 X          -5.6409   30.4156    6.7341 H          2 9DZ      0.000000
     40 X          -9.6484   28.2120    3.7985 H          2 9DZ      0.000000
     41 X         -10.4279   30.2129    7.5136 H          2 9DZ      0.000000
     42 X          -8.1370   29.6920    8.2723 H          2 9DZ      0.000000
     43 X         -12.2436   29.6050    6.0411 H          2 9DZ      0.000000
     44 X         -11.9491   28.7908    4.4918 H          2 9DZ      0.000000
     45 X          -4.1866   25.9028    8.0805 H          2 9DZ      0.000000
     46 X          -3.3422   30.0566    7.5268 H          2 9DZ      0.000000
     47 X          -7.3534   27.6959    4.5579 H          2 9DZ      0.000000
     48 X         -11.1291   31.6656    5.0388 H          2 9DZ      0.000000
     49 X         -13.7840   30.7281    4.5047 H          2 9DZ      0.000000
     50 X          -1.0130   26.7573    9.4805 H          2 9DZ      0.000000
     51 X          -2.0682   25.7849    8.4276 H          2 9DZ      0.000000
     52 X          -2.7399   26.5777    9.8728 H          2 9DZ      0.000000
     53 X          -8.0452   24.8384    8.6927 H          2 9DZ      0.000000
     54 X          -8.8418   26.0579    7.6701 H          2 9DZ      0.000000
     55 X          -7.7971   26.5709    9.0168 H          2 9DZ      0.000000
     56 C91       -11.1770   29.9360    0.7520 C.3        3 9DZ      0.000000
     57 C92       -12.2480   29.2060   -0.0960 C.3        3 9DZ      0.000000
     58 C93       -11.8690   28.8900   -1.5670 C.3        3 9DZ      0.000000
     59 C94       -11.0510   27.5990   -1.7450 C.3        3 9DZ      0.000000
     60 C95       -10.5340   27.4290   -3.1640 C.ar       3 9DZ      0.000000
     61 C96       -11.2470   26.6630   -4.0890 C.ar       3 9DZ      0.000000
     62 C97       -10.7530   26.5260   -5.3860 C.ar       3 9DZ      0.000000
     63 C98        -9.5740   27.1370   -5.7690 C.ar       3 9DZ      0.000000
     64 C99        -8.8620   27.8980   -4.8650 C.ar       3 9DZ      0.000000
     65 CA0        -9.3390   28.0490   -3.5560 C.ar       3 9DZ      0.000000
     66 CA1        -7.5880   28.5300   -5.3710 C.3        3 9DZ      0.000000
     67 CA2       -11.4570   25.7230   -6.4270 C.3        3 9DZ      0.000000
     68 CA3       -10.7570   31.2880    0.1600 C.2        3 9DZ      0.000000
     69 N90       -11.6300   30.1540    2.1200 N.am       3 9DZ      0.000000
     70 NA5        -9.4670   31.5350    0.0830 N.am       3 9DZ      0.000000
     71 OA4       -11.5770   32.1130   -0.2090 O.2        3 9DZ      0.000000
     72 H91       -10.2926   29.3001    0.7911 H          3 9DZ      0.000000
     73 H922      -12.4738   28.2610    0.3980 H          3 9DZ      0.000000
     74 H923      -13.1528   29.8138   -0.0998 H          3 9DZ      0.000000
     75 H932      -12.7890   28.7937   -2.1436 H          3 9DZ      0.000000
     76 H933      -11.2934   29.7253   -1.9659 H          3 9DZ      0.000000
     77 H942      -11.6849   26.7469   -1.4996 H          3 9DZ      0.000000
     78 H943      -10.2038   27.6192   -1.0595 H          3 9DZ      0.000000
     79 H96       -12.1707   26.1821   -3.8030 H          3 9DZ      0.000000
     80 H98        -9.2091   27.0184   -6.7786 H          3 9DZ      0.000000
     81 HA0        -8.7842   28.6451   -2.8466 H          3 9DZ      0.000000
     82 H90       -12.5158   29.7431    2.3781 H          3 9DZ      0.000000
     83 HA51       -8.8009   30.8449    0.3995 H          3 9DZ      0.000000
     84 HA52       -9.1428   32.4147   -0.2926 H          3 9DZ      0.000000
     85 HA11       -7.1213   29.1010   -4.5683 H          3 9DZ      0.000000
     86 HA12       -7.8183   29.1951   -6.2033 H          3 9DZ      0.000000
     87 HA13       -6.9044   27.7505   -5.7073 H          3 9DZ      0.000000
     88 HA21      -12.3662   25.2959   -6.0039 H          3 9DZ      0.000000
     89 HA22      -11.7153   26.3660   -7.2684 H          3 9DZ      0.000000
     90 HA23      -10.8040   24.9205   -6.7700 H          3 9DZ      0.000000
@<TRIPOS>BOND
     1    1    2 1
     2    1   12 1
     3    1   13 1
     4    1   14 1
     5    2    3 1
     6    2    5 1
     7    2    9 1
     8    3    4 2
     9    3   34 am
    10    5    6 1
    11    5   10 1
    12    5   11 1
    13    6    7 2
    14    6    8 1
    15    8   15 1
    16   16   17 1
    17   16   53 1
    18   16   54 1
    19   16   55 1
    20   17   27 1
    21   17   37 1
    22   17   38 1
    23   18   28 ar
    24   18   29 ar
    25   18   36 1
    26   19   20 ar
    27   19   29 ar
    28   19   39 1
    29   20   21 1
    30   20   27 ar
    31   21   25 ar
    32   21   30 ar
    33   22   23 ar
    34   22   30 ar
    35   22   40 1
    36   23   24 ar
    37   23   26 1
    38   24   25 ar
    39   24   41 1
    40   25   42 1
    41   26   31 1
    42   26   43 1
    43   26   44 1
    44   27   28 ar
    45   28   45 1
    46   29   46 1
    47   30   47 1
    48   31   32 1
    49   31   34 1
    50   31   48 1
    51   32   35 2
    52   32   69 am
    53   33   36 1
    54   33   50 1
    55   33   51 1
    56   33   52 1
    57   34   49 1
    58   56   57 1
    59   56   68 1
    60   56   69 1
    61   56   72 1
    62   57   58 1
    63   57   73 1
    64   57   74 1
    65   58   59 1
    66   58   75 1
    67   58   76 1
    68   59   60 1
    69   59   77 1
    70   59   78 1
    71   60   61 ar
    72   60   65 ar
    73   61   62 ar
    74   61   79 1
    75   62   63 ar
    76   62   67 1
    77   63   64 ar
    78   63   80 1
    79   64   65 ar
    80   64   66 1
    81   65   81 1
    82   66   85 1
    83   66   86 1
    84   66   87 1
    85   67   88 1
    86   67   89 1
    87   67   90 1
    88   68   70 am
    89   68   71 2
    90   69   82 1
    91   70   83 1
    92   70   84 1
