# created with PyMOL 2.3.5
@<TRIPOS>MOLECULE
I32
43 44 1 0 0
SMALL
USER_CHARGES


@<TRIPOS>ATOM
      1 H01        -4.8590   -1.1880    0.8790 H         1 I321        0.0000
      2 O2         -2.4610   -0.7190    1.2420 O.3       1 I321        0.0000
      3 C10        -2.6370    0.0200    0.0320 C.3       1 I321        0.0000
      4 C11        -4.0870    0.4970   -0.0670 C.3       1 I321        0.0000
      5 N2         -4.9870   -0.6640   -0.0680 N.3       1 I321        0.0000
      6 C12        -6.3910   -0.2430   -0.1620 C.3       1 I321        0.0000
      7 C15        -6.6020    0.5410   -1.4590 C.3       1 I321        0.0000
      8 C13        -7.2950   -1.4770   -0.1600 C.3       1 I321        0.0000
      9 C9         -1.7010    1.2300    0.0320 C.3       1 I321        0.0000
     10 O1         -0.3440    0.7820    0.0070 O.3       1 I321        0.0000
     11 C4          0.6210    1.7370    0.0040 C.2       1 I321        0.0000
     12 C5          0.2750    3.0740    0.0250 C.2       1 I321        0.0000
     13 C6          1.2570    4.0540    0.0210 C.2       1 I321        0.0000
     14 C7          2.5910    3.7120   -0.0030 C.2       1 I321        0.0000
     15 C8          2.9680    2.3720   -0.0230 C.2       1 I321        0.0000
     16 C3          1.9770    1.3720   -0.0140 C.2       1 I321        0.0000
     17 N1          4.1910    1.7410   -0.0480 N.pl3     1 I321        0.0000
     18 C1          3.9850    0.3730   -0.0600 C.2       1 I321        0.0000
     19 C2          2.6470    0.1250   -0.0300 C.2       1 I321        0.0000
     20 C16         5.0140   -0.6220   -0.0860 C.1       1 I321        0.0000
     21 C14        -6.7380    0.6460    1.0340 C.3       1 I321        0.0000
     22 IAA         1.7410   -1.7640   -0.0340 I         1 I321        0.0000
     23 NAF         5.8310   -1.4110   -0.1070 N.1       1 I321        0.0000
     24 H2         -2.6500   -0.2120    2.0440 H         1 I321        0.0000
     25 H10        -2.4060   -0.6190   -0.8210 H         1 I321        0.0000
     26 H111       -4.3190    1.1360    0.7850 H         1 I321        0.0000
     27 H112       -4.2220    1.0610   -0.9910 H         1 I321        0.0000
     28 H91C       -1.8970    1.8410   -0.8480 H         1 I321        0.0000
     29 H92C       -1.8720    1.8210    0.9320 H         1 I321        0.0000
     30 HA         -4.7500   -1.3040   -0.8110 H         1 I321        0.0000
     31 H151       -6.3540   -0.0930   -2.3110 H         1 I321        0.0000
     32 H152       -7.6440    0.8530   -1.5290 H         1 I321        0.0000
     33 H153       -5.9580    1.4200   -1.4610 H         1 I321        0.0000
     34 H131       -7.1440   -2.0360    0.7640 H         1 I321        0.0000
     35 H132       -8.3370   -1.1650   -0.2300 H         1 I321        0.0000
     36 H133       -7.0470   -2.1110   -1.0110 H         1 I321        0.0000
     37 H141       -6.0940    1.5250    1.0320 H         1 I321        0.0000
     38 H142       -7.7800    0.9580    0.9640 H         1 I321        0.0000
     39 H143       -6.5880    0.0870    1.9580 H         1 I321        0.0000
     40 H5         -0.7670    3.3580    0.0430 H         1 I321        0.0000
     41 H6          0.9720    5.0950    0.0370 H         1 I321        0.0000
     42 H7          3.3460    4.4840   -0.0060 H         1 I321        0.0000
     43 H1          5.0550    2.1820   -0.0560 H         1 I321        0.0000
@<TRIPOS>BOND
     1    2    3 1
     2    2   24 1
     3    3    4 1
     4    3    9 1
     5    3   25 1
     6    4    5 1
     7    4   26 1
     8    4   27 1
     9    1    5 1
    10    5    6 1
    11    5   30 1
    12    6    7 1
    13    6    8 1
    14    6   21 1
    15    7   31 1
    16    7   32 1
    17    7   33 1
    18    8   34 1
    19    8   35 1
    20    8   36 1
    21    9   10 1
    22    9   28 1
    23    9   29 1
    24   10   11 1
    25   11   12 1
    26   11   16 2
    27   12   13 2
    28   12   40 1
    29   13   14 1
    30   13   41 1
    31   14   15 2
    32   14   42 1
    33   15   16 1
    34   15   17 1
    35   16   19 1
    36   17   18 1
    37   17   43 1
    38   18   19 2
    39   18   20 1
    40   19   22 1
    41   20   23 3
    42   21   37 1
    43   21   38 1
    44   21   39 1
@<TRIPOS>SUBSTRUCTURE
     1 I321        1 RESIDUE           4 A     I32     0 ROOT
