# created with PyMOL 2.3.5
@<TRIPOS>MOLECULE
PE5
65 64 1                 
SMALL
USER_CHARGES
@<TRIPOS>ATOM
1	 C48	1.688	1.015	11.134	C.3	1	PE50	0.000	
2	 C50	1.637	-0.248	10.273	C.3	1	PE50	0.000	
3	  O1	0.470	-0.216	9.449	O.3	1	PE50	0.000	
4	  C1	0.479	-1.416	8.673	C.3	1	PE50	0.000	
5	  C2	-0.750	-1.444	7.763	C.3	1	PE50	0.000	
6	  O2	-0.723	-0.313	6.891	O.3	1	PE50	0.000	
7	  C3	-1.891	-0.396	6.071	C.3	1	PE50	0.000	
8	  C4	-1.923	0.792	5.108	C.3	1	PE50	0.000	
9	  O3	-0.758	0.767	4.281	O.3	1	PE50	0.000	
10	  C5	-0.847	1.895	3.409	C.3	1	PE50	0.000	
11	  C6	0.376	1.928	2.492	C.3	1	PE50	0.000	
12	  O4	0.423	0.729	1.716	O.3	1	PE50	0.000	
13	  C7	1.581	0.820	0.884	C.3	1	PE50	0.000	
14	  C8	1.690	-0.439	0.023	C.3	1	PE50	0.000	
15	  O5	0.525	-0.559	-0.794	O.3	1	PE50	0.000	
16	  C9	0.686	-1.748	-1.571	C.3	1	PE50	0.000	
17	 C10	-0.533	-1.937	-2.474	C.3	1	PE50	0.000	
18	  O6	-0.659	-0.812	-3.346	O.3	1	PE50	0.000	
19	 C11	-1.810	-1.047	-4.159	C.3	1	PE50	0.000	
20	 C12	-2.003	0.127	-5.121	C.3	1	PE50	0.000	
21	  O7	-0.849	0.254	-5.954	O.3	1	PE50	0.000	
22	 C13	-1.089	1.361	-6.826	C.3	1	PE50	0.000	
23	 C14	0.115	1.553	-7.749	C.3	1	PE50	0.000	
24	  O8	0.313	0.370	-8.526	O.3	1	PE50	0.000	
25	 C15	1.445	0.611	-9.364	C.3	1	PE50	0.000	
26	 C16	1.713	-0.623	-10.227	C.3	1	PE50	0.000	
27	 O52	0.568	-0.894	-11.039	O.3	1	PE50	0.000	
28	H481	2.578	0.991	11.763	 H	1	PE50	0.000	
29	H482	1.723	1.893	10.489	 H	1	PE50	0.000	
30	H483	0.800	1.062	11.764	 H	1	PE50	0.000	
31	H501	2.525	-0.295	9.644	 H	1	PE50	0.000	
32	H502	1.602	-1.126	10.918	 H	1	PE50	0.000	
33	 H11	1.383	-1.448	8.064	 H	1	PE50	0.000	
34	 H12	0.459	-2.279	9.339	 H	1	PE50	0.000	
35	 H21	-0.743	-2.360	7.172	 H	1	PE50	0.000	
36	 H22	-1.653	-1.412	8.372	 H	1	PE50	0.000	
37	 H31	-1.869	-1.325	5.501	 H	1	PE50	0.000	
38	 H32	-2.779	-0.377	6.702	 H	1	PE50	0.000	
39	 H41	-2.814	0.728	4.483	 H	1	PE50	0.000	
40	 H42	-1.945	1.720	5.678	 H	1	PE50	0.000	
41	 H51	-1.751	1.818	2.805	 H	1	PE50	0.000	
42	H52A	-0.882	2.810	4.001	 H	1	PE50	0.000	
43	 H61	0.309	2.789	1.826	 H	1	PE50	0.000	
44	 H62	1.281	2.006	3.095	 H	1	PE50	0.000	
45	 H71	1.498	1.694	0.239	 H	1	PE50	0.000	
46	 H72	2.470	0.911	1.508	 H	1	PE50	0.000	
47	 H81	2.574	-0.370	-0.611	 H	1	PE50	0.000	
48	 H82	1.773	-1.314	0.668	 H	1	PE50	0.000	
49	 H91	1.583	-1.663	-2.185	 H	1	PE50	0.000	
50	 H92	0.782	-2.606	-0.906	 H	1	PE50	0.000	
51	H101	-0.411	-2.844	-3.066	 H	1	PE50	0.000	
52	H102	-1.430	-2.023	-1.860	 H	1	PE50	0.000	
53	H111	-1.671	-1.965	-4.730	 H	1	PE50	0.000	
54	H112	-2.691	-1.144	-3.524	 H	1	PE50	0.000	
55	H121	-2.881	-0.051	-5.742	 H	1	PE50	0.000	
56	H122	-2.142	1.045	-4.551	 H	1	PE50	0.000	
57	H131	-1.979	1.166	-7.424	 H	1	PE50	0.000	
58	H132	-1.240	2.264	-6.233	 H	1	PE50	0.000	
59	H141	-0.067	2.398	-8.414	 H	1	PE50	0.000	
60	H142	1.004	1.748	-7.151	 H	1	PE50	0.000	
61	H151	1.245	1.467	-10.008	 H	1	PE50	0.000	
62	H152	2.318	0.818	-8.745	 H	1	PE50	0.000	
63	H161	2.576	-0.440	-10.866	 H	1	PE50	0.000	
64	H162	1.912	-1.480	-9.583	 H	1	PE50	0.000	
65	 H52	0.778	-1.678	-11.565	 H	1	PE50	0.000	
@<TRIPOS>BOND
1 1 2 1
2 1 28 1
3 1 29 1
4 1 30 1
5 2 3 1
6 2 31 1
7 2 32 1
8 3 4 1
9 4 5 1
10 4 33 1
11 4 34 1
12 5 6 1
13 5 35 1
14 5 36 1
15 6 7 1
16 7 8 1
17 7 37 1
18 7 38 1
19 8 9 1
20 8 39 1
21 8 40 1
22 9 10 1
23 10 11 1
24 10 41 1
25 10 42 1
26 11 12 1
27 11 43 1
28 11 44 1
29 12 13 1
30 13 14 1
31 13 45 1
32 13 46 1
33 14 15 1
34 14 47 1
35 14 48 1
36 15 16 1
37 16 17 1
38 16 49 1
39 16 50 1
40 17 18 1
41 17 51 1
42 17 52 1
43 18 19 1
44 19 20 1
45 19 53 1
46 19 54 1
47 20 21 1
48 20 55 1
49 20 56 1
50 21 22 1
51 22 23 1
52 22 57 1
53 22 58 1
54 23 24 1
55 23 59 1
56 23 60 1
57 24 25 1
58 25 26 1
59 25 61 1
60 25 62 1
61 26 27 1
62 26 63 1
63 26 64 1
64 27 65 1
@<TRIPOS>SUBSTRUCTURE
1	PE50	1	GROUP	1 ****	PE5
