# created with PyMOL 2.3.5
@<TRIPOS>MOLECULE
1WV
53 52 1                 
SMALL
USER_CHARGES
@<TRIPOS>ATOM
1	 C10	-1.128	-1.907	-0.144	C.3	1	1WV0	0.000	
2	 C13	2.255	-0.107	-0.520	C.3	1	1WV0	0.000	
3	 C17	5.972	-0.061	0.203	C.3	1	1WV0	0.000	
4	 C20	8.409	0.490	0.222	C.3	1	1WV0	0.000	
5	 C07	-4.585	-2.279	0.454	C.2	1	1WV0	0.000	
6	 C08	-3.505	-2.610	-0.210	C.2	1	1WV0	0.000	
7	 C09	-2.529	-1.545	-0.640	C.3	1	1WV0	0.000	
8	 C11	-0.137	-0.826	-0.580	C.3	1	1WV0	0.000	
9	 C12	1.264	-1.189	-0.084	C.3	1	1WV0	0.000	
10	 C14	3.635	-0.464	-0.032	C.2	1	1WV0	0.000	
11	 O15	3.808	-1.479	0.601	O.co2	1	1WV0	0.000	
12	 O16	4.672	0.345	-0.299	O.3	1	1WV0	0.000	
13	 C18	7.021	0.978	-0.198	C.3	1	1WV0	0.000	
14	 O19	6.735	2.218	0.453	O.3	1	1WV0	0.000	
15	 O21	9.399	1.404	-0.254	O.3	1	1WV0	0.000	
16	  H1	-1.134	-1.977	0.944	 H	1	1WV0	0.000	
17	  H2	2.261	-0.038	-1.608	 H	1	1WV0	0.000	
18	  H3	5.934	-0.139	1.289	 H	1	1WV0	0.000	
19	  H4	6.239	-1.029	-0.222	 H	1	1WV0	0.000	
20	  H5	8.461	0.432	1.309	 H	1	1WV0	0.000	
21	  H6	8.591	-0.497	-0.203	 H	1	1WV0	0.000	
22	  H8	-5.221	-3.048	0.868	 H	1	1WV0	0.000	
23	 H10	-3.314	-3.646	-0.449	 H	1	1WV0	0.000	
24	 H12	-2.828	-0.586	-0.216	 H	1	1WV0	0.000	
25	 H13	-2.523	-1.476	-1.727	 H	1	1WV0	0.000	
26	 H14	-0.131	-0.757	-1.668	 H	1	1WV0	0.000	
27	 H15	1.563	-2.147	-0.507	 H	1	1WV0	0.000	
28	 H16	6.997	1.121	-1.278	 H	1	1WV0	0.000	
29	 H17	6.740	2.166	1.419	 H	1	1WV0	0.000	
30	 H18	10.306	1.156	-0.024	 H	1	1WV0	0.000	
31	  C1	-4.940	-0.826	0.641	C.3	1	1WV0	0.000	
32	  C2	-6.381	-0.591	0.186	C.3	1	1WV0	0.000	
33	  C3	-6.741	0.884	0.375	C.3	1	1WV0	0.000	
34	  C4	-8.183	1.120	-0.079	C.3	1	1WV0	0.000	
35	  C5	-8.543	2.595	0.110	C.3	1	1WV0	0.000	
36	  C6	-9.984	2.831	-0.345	C.3	1	1WV0	0.000	
37	  H7	-0.829	-2.866	-0.567	 H	1	1WV0	0.000	
38	  H9	1.956	0.852	-0.097	 H	1	1WV0	0.000	
39	 H11	-0.436	0.133	-0.157	 H	1	1WV0	0.000	
40	 H19	1.258	-1.258	1.004	 H	1	1WV0	0.000	
41	 H20	-4.843	-0.561	1.693	 H	1	1WV0	0.000	
42	 H21	-4.266	-0.209	0.047	 H	1	1WV0	0.000	
43	 H22	-6.478	-0.856	-0.867	 H	1	1WV0	0.000	
44	 H23	-7.055	-1.208	0.780	 H	1	1WV0	0.000	
45	 H24	-6.644	1.150	1.428	 H	1	1WV0	0.000	
46	 H25	-6.067	1.502	-0.218	 H	1	1WV0	0.000	
47	 H26	-8.280	0.855	-1.132	 H	1	1WV0	0.000	
48	 H27	-8.857	0.502	0.515	 H	1	1WV0	0.000	
49	 H28	-8.446	2.860	1.163	 H	1	1WV0	0.000	
50	 H29	-7.869	3.212	-0.484	 H	1	1WV0	0.000	
51	 H30	-10.241	3.881	-0.209	 H	1	1WV0	0.000	
52	 H31	-10.081	2.565	-1.397	 H	1	1WV0	0.000	
53	 H32	-10.658	2.213	0.249	 H	1	1WV0	0.000	
@<TRIPOS>BOND
1 4 15 1
2 4 13 1
3 13 14 1
4 3 13 1
5 3 12 1
6 10 12 1
7 10 11 2
8 2 10 1
9 2 9 1
10 8 9 1
11 1 8 1
12 1 7 1
13 6 7 1
14 5 6 2
15 1 16 1
16 2 17 1
17 3 18 1
18 3 19 1
19 4 20 1
20 4 21 1
21 5 22 1
22 6 23 1
23 7 24 1
24 7 25 1
25 8 26 1
26 9 27 1
27 13 28 1
28 14 29 1
29 15 30 1
30 5 31 1
31 31 32 1
32 32 33 1
33 33 34 1
34 34 35 1
35 35 36 1
36 1 37 1
37 2 38 1
38 8 39 1
39 9 40 1
40 31 41 1
41 31 42 1
42 32 43 1
43 32 44 1
44 33 45 1
45 33 46 1
46 34 47 1
47 34 48 1
48 35 49 1
49 35 50 1
50 36 51 1
51 36 52 1
52 36 53 1
@<TRIPOS>SUBSTRUCTURE
1	1WV0	1	GROUP	1 ****	1WV
