# created with PyMOL 2.3.5
@<TRIPOS>MOLECULE
836
63 67 1                 
SMALL
USER_CHARGES
@<TRIPOS>ATOM
1	  N1	-5.251	-3.852	-0.023	N.pl3	1	8360	0.000	
2	  N3	3.264	-1.076	0.150	N.2	1	8360	0.000	
3	  C4	-5.681	1.104	0.172	C.3	1	8360	0.000	
4	  C5	-3.431	-0.020	0.216	C.2	1	8360	0.000	
5	  C6	-2.642	-1.171	0.197	C.2	1	8360	0.000	
6	  C7	-3.239	-2.412	0.120	C.2	1	8360	0.000	
7	  C8	-2.798	1.313	0.299	C.2	1	8360	0.000	
8	 C10	-1.132	2.934	-0.431	C.3	1	8360	0.000	
9	 C13	0.621	1.862	0.987	C.3	1	8360	0.000	
10	 C15	2.628	1.127	0.007	C.2	1	8360	0.000	
11	 C17	4.985	0.586	0.166	C.2	1	8360	0.000	
12	 C20	5.643	3.271	0.072	C.2	1	8360	0.000	
13	 C21	4.325	2.922	0.014	C.2	1	8360	0.000	
14	 C22	4.561	-0.813	0.211	C.2	1	8360	0.000	
15	 C24	6.452	-2.089	1.347	C.2	1	8360	0.000	
16	 C26	5.010	-3.114	-1.825	C.3	1	8360	0.000	
17	 N01	-1.834	1.657	-0.578	N.pl3	1	8360	0.000	
18	  C1	-4.617	-2.517	0.061	C.2	1	8360	0.000	
19	  O1	-3.147	2.100	1.158	O.2	1	8360	0.000	
20	 C11	-0.090	3.076	-1.544	C.3	1	8360	0.000	
21	 C12	0.947	1.958	-1.412	C.3	1	8360	0.000	
22	 C14	-0.425	2.977	0.927	C.3	1	8360	0.000	
23	 C16	3.970	1.571	0.060	C.2	1	8360	0.000	
24	 C18	6.324	0.975	0.222	C.2	1	8360	0.000	
25	 C19	6.638	2.303	0.175	C.2	1	8360	0.000	
26	  O2	-6.464	-3.948	-0.080	O.2	1	8360	0.000	
27	  C2	-5.406	-1.380	0.079	C.2	1	8360	0.000	
28	  F2	-7.029	0.736	0.109	 F	1	8360	0.000	
29	  N2	1.594	2.043	-0.097	N.pl3	1	8360	0.000	
30	 C23	5.551	-1.902	0.320	C.2	1	8360	0.000	
31	 C25	7.195	-3.232	1.054	C.2	1	8360	0.000	
32	  O3	-4.560	-4.855	-0.040	O.2	1	8360	0.000	
33	  C3	-4.821	-0.133	0.151	C.2	1	8360	0.000	
34	  F3	-5.366	1.909	-0.928	 F	1	8360	0.000	
35	  F4	-5.447	1.816	1.353	 F	1	8360	0.000	
36	  N4	2.368	-0.166	0.056	N.2	1	8360	0.000	
37	  N5	6.779	-3.723	-0.086	N.2	1	8360	0.000	
38	  N6	5.747	-2.912	-0.575	N.pl3	1	8360	0.000	
39	  C9	-1.488	0.753	-1.678	C.3	1	8360	0.000	
40	  H1	-1.566	-1.090	0.243	 H	1	8360	0.000	
41	  H2	-2.629	-3.303	0.105	 H	1	8360	0.000	
42	  H3	-1.848	3.753	-0.496	 H	1	8360	0.000	
43	  H4	1.135	1.898	1.947	 H	1	8360	0.000	
44	  H5	0.128	0.896	0.876	 H	1	8360	0.000	
45	  H6	5.919	4.314	0.035	 H	1	8360	0.000	
46	  H7	3.563	3.684	-0.066	 H	1	8360	0.000	
47	  H8	6.565	-1.461	2.218	 H	1	8360	0.000	
48	  H9	5.562	-2.662	-2.649	 H	1	8360	0.000	
49	 H10	4.892	-4.182	-2.010	 H	1	8360	0.000	
50	 H11	4.028	-2.648	-1.747	 H	1	8360	0.000	
51	 H12	-0.582	3.004	-2.515	 H	1	8360	0.000	
52	 H13	0.405	4.044	-1.459	 H	1	8360	0.000	
53	 H14	0.453	0.992	-1.512	 H	1	8360	0.000	
54	 H15	1.698	2.065	-2.195	 H	1	8360	0.000	
55	 H16	0.065	3.943	1.052	 H	1	8360	0.000	
56	 H17	-1.157	2.834	1.722	 H	1	8360	0.000	
57	 H18	7.104	0.233	0.303	 H	1	8360	0.000	
58	 H19	7.673	2.607	0.219	 H	1	8360	0.000	
59	 H20	-6.481	-1.470	0.033	 H	1	8360	0.000	
60	 H21	7.984	-3.644	1.666	 H	1	8360	0.000	
61	 H22	-0.769	0.013	-1.327	 H	1	8360	0.000	
62	 H23	-2.388	0.248	-2.029	 H	1	8360	0.000	
63	 H24	-1.051	1.326	-2.495	 H	1	8360	0.000	
@<TRIPOS>BOND
1 3 34 1
2 3 35 1
3 3 28 1
4 3 33 1
5 9 22 1
6 8 22 1
7 9 29 1
8 27 33 2
9 4 33 1
10 18 27 1
11 1 26 2
12 8 17 1
13 8 20 1
14 7 19 2
15 17 39 1
16 7 17 1
17 4 7 1
18 4 5 2
19 10 29 1
20 21 29 1
21 10 36 2
22 2 36 1
23 1 18 1
24 6 18 2
25 1 32 1
26 10 23 1
27 2 14 2
28 15 31 1
29 15 30 2
30 20 21 1
31 31 37 2
32 5 6 1
33 13 23 2
34 11 23 1
35 14 30 1
36 11 14 1
37 30 38 1
38 12 13 1
39 11 24 2
40 37 38 1
41 16 38 1
42 12 25 2
43 24 25 1
44 5 40 1
45 6 41 1
46 8 42 1
47 9 43 1
48 9 44 1
49 12 45 1
50 13 46 1
51 15 47 1
52 16 48 1
53 16 49 1
54 16 50 1
55 20 51 1
56 20 52 1
57 21 53 1
58 21 54 1
59 22 55 1
60 22 56 1
61 24 57 1
62 25 58 1
63 27 59 1
64 31 60 1
65 39 61 1
66 39 62 1
67 39 63 1
@<TRIPOS>SUBSTRUCTURE
1	8360	1	GROUP	1 ****	836
