@<TRIPOS>MOLECULE
    NLE
   87    86     0     0     0
SMALL
USER_CHARGES


@<TRIPOS>ATOM
      1 X          58.1180 -120.6540  221.1380 N.4        1 NLE      0.000000
      2 X          58.6350 -119.9360  222.2980 C.3        1 NLE      0.000000
      3 X          57.6630 -120.0150  223.4690 C.2        1 NLE      0.000000
      4 X          58.0830 -120.1210  224.6270 O.2        1 NLE      0.000000
      5 X          58.9200 -118.4800  221.9330 C.3        1 NLE      0.000000
      6 X          59.5490 -117.7050  223.0740 C.2        1 NLE      0.000000
      7 X          60.2820 -118.2650  223.8910 O.2        1 NLE      0.000000
      8 X          59.2620 -116.4100  223.1400 N.am       1 NLE      0.000000
      9 X          59.5726 -120.4030  222.5995 H          1 NLE      0.000000
     10 X          59.6000 -118.4605  221.0813 H          1 NLE      0.000000
     11 X          57.9849 -117.9966  221.6502 H          1 NLE      0.000000
     12 X          58.6546 -115.9916  222.4500 H          1 NLE      0.000000
     13 X          59.6511 -115.8436  223.8802 H          1 NLE      0.000000
     14 X          57.9334 -121.6143  221.3907 H          1 NLE      0.000000
     15 X          58.8006 -120.6271  220.3940 H          1 NLE      0.000000
     16 X          57.2624 -120.2176  220.8258 H          1 NLE      0.000000
     17 X          56.3650 -119.9690  223.1860 N.am       2 NLE      0.000000
     18 X          55.3410 -120.0860  224.2150 C.3        2 NLE      0.000000
     19 X          55.3620 -121.4750  224.8450 C.2        2 NLE      0.000000
     20 X          55.1930 -121.6200  226.0560 O.2        2 NLE      0.000000
     21 X          53.9590 -119.7930  223.6260 C.3        2 NLE      0.000000
     22 X          52.9360 -120.0270  224.5770 O.3        2 NLE      0.000000
     23 X          56.0792 -119.8488  222.2248 H          2 NLE      0.000000
     24 X          55.5477 -119.3509  224.9929 H          2 NLE      0.000000
     25 X          53.7964 -120.4388  222.7631 H          2 NLE      0.000000
     26 X          53.9194 -118.7517  223.3064 H          2 NLE      0.000000
     27 X          52.0819 -119.8360  224.1825 H          2 NLE      0.000000
     28 N          55.5710 -122.4900  224.0140 N.am       3 NLE      0.000000
     29 CA         55.6300 -123.8650  224.4760 C.3        3 NLE      0.000000
     30 C          56.8170 -124.0610  225.3730 C.2        3 NLE      0.000000
     31 O          56.7000 -124.7320  226.4210 O.2        3 NLE      0.000000
     32 CB         55.7030 -124.8220  223.2900 C.3        3 NLE      0.000000
     33 CG         54.3830 -125.5580  223.0960 C.3        3 NLE      0.000000
     34 CD         54.0830 -126.4410  224.3020 C.3        3 NLE      0.000000
     35 CE         52.7920 -127.2050  224.1110 C.3        3 NLE      0.000000
     36 H          55.6927 -122.2991  223.0297 H          3 NLE      0.000000
     37 HA         54.7248 -124.0813  225.0433 H          3 NLE      0.000000
     38 HB2        55.9294 -124.2538  222.3878 H          3 NLE      0.000000
     39 HB3        56.4964 -125.5488  223.4643 H          3 NLE      0.000000
     40 HG2        54.4468 -126.1798  222.2031 H          3 NLE      0.000000
     41 HG3        53.5799 -124.8314  222.9726 H          3 NLE      0.000000
     42 HD2        53.9972 -125.8139  225.1894 H          3 NLE      0.000000
     43 HD3        54.9008 -127.1482  224.4406 H          3 NLE      0.000000
     44 HE1        52.6038 -127.8261  224.9867 H          3 NLE      0.000000
     45 HE2        52.8721 -127.8380  223.2273 H          3 NLE      0.000000
     46 HE3        51.9695 -126.5017  223.9808 H          3 NLE      0.000000
     47 Y0         57.9550 -123.4940  224.9860 N.am       4 NLE      0.000000
     48 X          59.1810 -123.6120  225.7670 C.3        4 NLE      0.000000
     49 X          59.0310 -122.9320  227.1240 C.2        4 NLE      0.000000
     50 X          59.5340 -123.4210  228.1360 O.2        4 NLE      0.000000
     51 X          60.3590 -123.0060  225.0020 C.3        4 NLE      0.000000
     52 X          61.7130 -123.2450  225.6480 C.3        4 NLE      0.000000
     53 X          62.8070 -122.3960  225.0310 C.2        4 NLE      0.000000
     54 X          62.5310 -121.2280  224.6840 O.2        4 NLE      0.000000
     55 X          63.9420 -122.8970  224.8900 O.3        4 NLE      0.000000
     56 X          57.9713 -122.9656  224.1254 H          4 NLE      0.000000
     57 X          59.3844 -124.6701  225.9320 H          4 NLE      0.000000
     58 X          60.2010 -121.9300  224.9286 H          4 NLE      0.000000
     59 X          60.3740 -123.4254  223.9960 H          4 NLE      0.000000
     60 X          61.6413 -123.0059  226.7090 H          4 NLE      0.000000
     61 X          61.9769 -124.2969  225.5389 H          4 NLE      0.000000
     62 X          64.5297 -122.2517  224.4902 H          4 NLE      0.000000
     63 X          58.3290 -121.7960  227.1340 N.am       5 NLE      0.000000
     64 X          58.1580 -121.0460  228.3730 C.3        5 NLE      0.000000
     65 X          57.2150 -121.7640  229.3310 C.2        5 NLE      0.000000
     66 X          57.4550 -121.7880  230.5440 O.2        5 NLE      0.000000
     67 X          57.6470 -119.6380  228.0650 C.3        5 NLE      0.000000
     68 X          57.5850 -118.7250  229.2760 C.3        5 NLE      0.000000
     69 X          57.0230 -117.3550  228.9260 C.3        5 NLE      0.000000
     70 X          55.6430 -117.4280  228.4550 N.pl3      5 NLE      0.000000
     71 X          55.2730 -117.2560  227.1900 C.2        5 NLE      0.000000
     72 X          53.9930 -117.3430  226.8560 N.pl3      5 NLE      0.000000
     73 X          56.1800 -116.9890  226.2610 N.pl3      5 NLE      0.000000
     74 X          57.9142 -121.4544  226.2788 H          5 NLE      0.000000
     75 X          59.1315 -120.9575  228.8552 H          5 NLE      0.000000
     76 X          56.3322 -122.2546  228.9485 H          5 NLE      0.000000
     77 X          58.3114 -119.1858  227.3287 H          5 NLE      0.000000
     78 X          56.6488 -119.7151  227.6341 H          5 NLE      0.000000
     79 X          56.9476 -119.1847  230.0314 H          5 NLE      0.000000
     80 X          58.5890 -118.6046  229.6828 H          5 NLE      0.000000
     81 X          57.0575 -116.7243  229.8144 H          5 NLE      0.000000
     82 X          57.6404 -116.9062  228.1479 H          5 NLE      0.000000
     83 X          54.9220 -117.6220  229.1352 H          5 NLE      0.000000
     84 X          53.2993 -117.5432  227.5622 H          5 NLE      0.000000
     85 X          53.7116 -117.2091  225.8953 H          5 NLE      0.000000
     86 X          57.1555 -116.9189  226.5130 H          5 NLE      0.000000
     87 X          55.8956 -116.8556  225.3011 H          5 NLE      0.000000
@<TRIPOS>BOND
     1    1    2 1
     2    1   14 1
     3    1   15 1
     4    1   16 1
     5    2    3 1
     6    2    5 1
     7    2    9 1
     8    3    4 2
     9    3   17 am
    10    5    6 1
    11    5   10 1
    12    5   11 1
    13    6    7 2
    14    6    8 am
    15    8   12 1
    16    8   13 1
    17   17   18 1
    18   17   23 1
    19   18   19 1
    20   18   21 1
    21   18   24 1
    22   19   20 2
    23   19   28 am
    24   21   22 1
    25   21   25 1
    26   21   26 1
    27   22   27 1
    28   28   29 1
    29   28   36 1
    30   29   30 1
    31   29   32 1
    32   29   37 1
    33   30   31 2
    34   30   47 am
    35   32   33 1
    36   32   38 1
    37   32   39 1
    38   33   34 1
    39   33   40 1
    40   33   41 1
    41   34   35 1
    42   34   42 1
    43   34   43 1
    44   35   44 1
    45   35   45 1
    46   35   46 1
    47   47   48 1
    48   47   56 1
    49   48   49 1
    50   48   51 1
    51   48   57 1
    52   49   50 2
    53   49   63 am
    54   51   52 1
    55   51   58 1
    56   51   59 1
    57   52   53 1
    58   52   60 1
    59   52   61 1
    60   53   54 2
    61   53   55 1
    62   55   62 1
    63   63   64 1
    64   63   74 1
    65   64   65 1
    66   64   67 1
    67   64   75 1
    68   65   66 2
    69   65   76 1
    70   67   68 1
    71   67   77 1
    72   67   78 1
    73   68   69 1
    74   68   79 1
    75   68   80 1
    76   69   70 1
    77   69   81 1
    78   69   82 1
    79   70   71 1
    80   70   83 1
    81   71   72 2
    82   71   73 1
    83   72   84 1
    84   72   85 1
    85   73   86 1
    86   73   87 1
