# created with PyMOL 2.3.5
@<TRIPOS>MOLECULE
9DK
31 31 1                 
SMALL
USER_CHARGES
@<TRIPOS>ATOM
1	 C67	3.818	-0.535	0.118	C.2	1	9DK0	0.000	
2	 C69	2.742	0.501	-0.084	C.3	1	9DK0	0.000	
3	 C70	2.878	1.591	0.981	C.3	1	9DK0	0.000	
4	 C71	2.889	1.124	-1.473	C.3	1	9DK0	0.000	
5	 C72	1.389	-0.151	0.034	C.2	1	9DK0	0.000	
6	 C75	-1.046	-0.046	0.004	C.3	1	9DK0	0.000	
7	 C76	-2.138	1.005	-0.201	C.3	1	9DK0	0.000	
8	 C77	-3.491	0.354	-0.083	C.2	1	9DK0	0.000	
9	 C78	-4.483	0.733	0.746	C.2	1	9DK0	0.000	
10	 C80	-5.139	-0.997	-0.423	C.2	1	9DK0	0.000	
11	 N74	0.270	0.587	-0.111	N.pl3	1	9DK0	0.000	
12	 N79	-5.528	-0.124	0.531	N.pl3	1	9DK0	0.000	
13	 N81	-3.922	-0.702	-0.789	N.2	1	9DK0	0.000	
14	 O68	3.516	-1.686	0.331	O.co2	1	9DK0	0.000	
15	 O73	1.306	-1.340	0.260	O.2	1	9DK0	0.000	
16	  H2	3.857	2.062	0.896	 H	1	9DK0	0.000	
17	  H3	2.100	2.340	0.835	 H	1	9DK0	0.000	
18	  H4	2.774	1.147	1.971	 H	1	9DK0	0.000	
19	  H5	2.792	0.347	-2.232	 H	1	9DK0	0.000	
20	  H6	2.111	1.873	-1.619	 H	1	9DK0	0.000	
21	  H7	3.868	1.595	-1.559	 H	1	9DK0	0.000	
22	  H8	-1.150	-0.490	0.994	 H	1	9DK0	0.000	
23	  H9	-1.142	-0.823	-0.755	 H	1	9DK0	0.000	
24	 H10	-2.041	1.782	0.558	 H	1	9DK0	0.000	
25	 H11	-2.033	1.449	-1.191	 H	1	9DK0	0.000	
26	 H12	-4.457	1.555	1.446	 H	1	9DK0	0.000	
27	 H13	-5.738	-1.804	-0.820	 H	1	9DK0	0.000	
28	 H14	0.337	1.538	-0.292	 H	1	9DK0	0.000	
29	 H15	-6.388	-0.107	0.980	 H	1	9DK0	0.000	
30	  O1	5.111	-0.181	0.056	O.3	1	9DK0	0.000	
31	  H1	5.765	-0.880	0.192	 H	1	9DK0	0.000	
@<TRIPOS>BOND
1 5 15 2
2 7 8 1
3 6 7 1
4 8 9 2
5 9 12 1
6 1 14 2
7 8 13 1
8 10 12 1
9 1 2 1
10 5 11 1
11 2 5 1
12 10 13 2
13 6 11 1
14 2 3 1
15 2 4 1
16 3 16 1
17 3 17 1
18 3 18 1
19 4 19 1
20 4 20 1
21 4 21 1
22 6 22 1
23 6 23 1
24 7 24 1
25 7 25 1
26 9 26 1
27 10 27 1
28 11 28 1
29 12 29 1
30 1 30 1
31 30 31 1
@<TRIPOS>SUBSTRUCTURE
1	9DK0	1	GROUP	1 ****	9DK
