# created with PyMOL 2.3.5
@<TRIPOS>MOLECULE
ZAL
29 29 1                 
SMALL
USER_CHARGES
@<TRIPOS>ATOM
1	  C1	0.945	0.364	-0.009	C.3	1	ZAL0	0.000	
2	  C2	1.357	-1.077	0.301	C.3	1	ZAL0	0.000	
3	  C3	2.766	-1.088	0.895	C.3	1	ZAL0	0.000	
4	  C4	3.749	-0.482	-0.109	C.3	1	ZAL0	0.000	
5	  C5	3.337	0.959	-0.418	C.3	1	ZAL0	0.000	
6	  C6	1.928	0.970	-1.013	C.3	1	ZAL0	0.000	
7	   N	-1.490	0.854	1.568	N.3	1	ZAL0	0.000	
8	  CA	-1.467	-0.099	0.451	C.3	1	ZAL0	0.000	
9	  CB	-0.464	0.375	-0.604	C.3	1	ZAL0	0.000	
10	   C	-2.839	-0.186	-0.165	C.2	1	ZAL0	0.000	
11	   O	-3.639	0.701	0.015	O.co2	1	ZAL0	0.000	
12	  H1	0.957	0.950	0.910	 H	1	ZAL0	0.000	
13	  H2	0.657	-1.509	1.016	 H	1	ZAL0	0.000	
14	 H2A	1.345	-1.663	-0.618	 H	1	ZAL0	0.000	
15	  H3	2.778	-0.502	1.814	 H	1	ZAL0	0.000	
16	 H3A	3.060	-2.115	1.116	 H	1	ZAL0	0.000	
17	  H4	4.753	-0.490	0.315	 H	1	ZAL0	0.000	
18	 H4A	3.737	-1.068	-1.028	 H	1	ZAL0	0.000	
19	  H5	3.348	1.545	0.501	 H	1	ZAL0	0.000	
20	 H5A	4.037	1.391	-1.133	 H	1	ZAL0	0.000	
21	  H6	1.916	0.384	-1.932	 H	1	ZAL0	0.000	
22	 H6A	1.634	1.997	-1.233	 H	1	ZAL0	0.000	
23	  HN	-1.762	1.773	1.253	 H	1	ZAL0	0.000	
24	 HNA	-2.096	0.530	2.307	 H	1	ZAL0	0.000	
25	  HA	-1.170	-1.082	0.818	 H	1	ZAL0	0.000	
26	  HB	-0.718	1.388	-0.917	 H	1	ZAL0	0.000	
27	 HBA	-0.500	-0.292	-1.465	 H	1	ZAL0	0.000	
28	 OXT	-3.174	-1.250	-0.913	O.3	1	ZAL0	0.000	
29	 HXT	-4.066	-1.260	-1.286	 H	1	ZAL0	0.000	
@<TRIPOS>BOND
1 1 2 1
2 1 6 1
3 1 9 1
4 1 12 1
5 2 3 1
6 2 13 1
7 2 14 1
8 3 4 1
9 3 15 1
10 3 16 1
11 4 5 1
12 4 17 1
13 4 18 1
14 5 6 1
15 5 19 1
16 5 20 1
17 6 21 1
18 6 22 1
19 7 8 1
20 7 23 1
21 7 24 1
22 8 9 1
23 8 10 1
24 8 25 1
25 9 26 1
26 9 27 1
27 10 11 2
28 10 28 1
29 28 29 1
@<TRIPOS>SUBSTRUCTURE
1	ZAL0	1	GROUP	1 ****	ZAL
