# created with PyMOL 2.3.5
@<TRIPOS>MOLECULE
EPE
33 33 1                 
SMALL
USER_CHARGES
@<TRIPOS>ATOM
1	  N1	-0.820	-0.330	0.258	N.3	1	EPE0	0.000	
2	  C2	-1.669	0.557	1.061	C.3	1	EPE0	0.000	
3	  C3	-1.693	0.072	2.511	C.3	1	EPE0	0.000	
4	  N4	-0.342	0.147	3.079	N.3	1	EPE0	0.000	
5	  C5	0.507	-0.740	2.276	C.3	1	EPE0	0.000	
6	  C6	0.531	-0.255	0.826	C.3	1	EPE0	0.000	
7	  C7	-0.416	-0.441	4.423	C.3	1	EPE0	0.000	
8	  C8	0.966	-0.395	5.076	C.3	1	EPE0	0.000	
9	  O8	1.402	0.961	5.174	O.3	1	EPE0	0.000	
10	  C9	-0.746	0.258	-1.085	C.3	1	EPE0	0.000	
11	 C10	0.128	-0.621	-1.980	C.3	1	EPE0	0.000	
12	   S	0.219	0.104	-3.640	S.3	1	EPE0	0.000	
13	 O1S	-1.019	-0.001	-4.327	O.2	1	EPE0	0.000	
14	 O2S	0.986	1.301	-3.646	O.2	1	EPE0	0.000	
15	 O3S	1.110	-0.870	-4.397	O.3	1	EPE0	0.000	
16	 H21	-2.683	0.551	0.659	 H	1	EPE0	0.000	
17	 H22	-1.271	1.571	1.024	 H	1	EPE0	0.000	
18	 H31	-2.044	-0.959	2.543	 H	1	EPE0	0.000	
19	 H32	-2.367	0.702	3.093	 H	1	EPE0	0.000	
20	 H51	1.520	-0.734	2.677	 H	1	EPE0	0.000	
21	 H52	0.109	-1.754	2.313	 H	1	EPE0	0.000	
22	 H61	1.204	-0.885	0.244	 H	1	EPE0	0.000	
23	 H62	0.881	0.775	0.794	 H	1	EPE0	0.000	
24	 H71	-0.748	-1.476	4.348	 H	1	EPE0	0.000	
25	 H72	-1.123	0.124	5.029	 H	1	EPE0	0.000	
26	 H81	1.673	-0.961	4.470	 H	1	EPE0	0.000	
27	 H82	0.911	-0.832	6.073	 H	1	EPE0	0.000	
28	 HO8	2.275	0.945	5.590	 H	1	EPE0	0.000	
29	 H91	-1.748	0.323	-1.509	 H	1	EPE0	0.000	
30	 H92	-0.313	1.256	-1.022	 H	1	EPE0	0.000	
31	H101	1.131	-0.687	-1.557	 H	1	EPE0	0.000	
32	H102	-0.304	-1.620	-2.044	 H	1	EPE0	0.000	
33	HOS3	1.194	-0.529	-5.298	 H	1	EPE0	0.000	
@<TRIPOS>BOND
1 1 2 1
2 1 6 1
3 1 10 1
4 2 3 1
5 2 16 1
6 2 17 1
7 3 4 1
8 3 18 1
9 3 19 1
10 4 5 1
11 4 7 1
12 5 6 1
13 5 20 1
14 5 21 1
15 6 22 1
16 6 23 1
17 7 8 1
18 7 24 1
19 7 25 1
20 8 9 1
21 8 26 1
22 8 27 1
23 9 28 1
24 10 11 1
25 10 29 1
26 10 30 1
27 11 12 1
28 11 31 1
29 11 32 1
30 12 13 2
31 12 14 2
32 12 15 1
33 15 33 1
@<TRIPOS>SUBSTRUCTURE
1	EPE0	1	GROUP	1 ****	EPE
