@<TRIPOS>MOLECULE
    AC5
   49    49     0     0     0
SMALL
USER_CHARGES


@<TRIPOS>ATOM
      1 N          53.0450 -110.0760  204.4990 N.4        1 AC5      0.000000
      2 O          51.5090 -111.4100  202.4680 O.2        1 AC5      0.000000
      3 CA         53.5830 -110.4750  203.1980 C.3        1 AC5      0.000000
      4 C          52.7360 -111.5840  202.6300 C.2        1 AC5      0.000000
      5 CB1        53.5820 -109.2780  202.2560 C.3        1 AC5      0.000000
      6 CB2        55.0280 -110.9260  203.3630 C.3        1 AC5      0.000000
      7 CG1        55.0280 -108.8170  202.1060 C.3        1 AC5      0.000000
      8 CG2        55.9020 -109.7560  202.9310 C.3        1 AC5      0.000000
      9 HB12       53.1806 -109.5681  201.2850 H          1 AC5      0.000000
     10 HB13       52.9798 -108.4744  202.6799 H          1 AC5      0.000000
     11 HB22       55.2262 -111.1786  204.4046 H          1 AC5      0.000000
     12 HB23       55.2226 -111.7899  202.7275 H          1 AC5      0.000000
     13 HG12       55.3242 -108.8594  201.0579 H          1 AC5      0.000000
     14 HG13       55.1302 -107.7972  202.4770 H          1 AC5      0.000000
     15 HG22       56.2861 -109.2340  203.8074 H          1 AC5      0.000000
     16 HG23       56.7313 -110.1185  202.3235 H          1 AC5      0.000000
     17 H1         52.0865 -109.7768  204.3901 H          1 AC5      0.000000
     18 H2         53.0824 -110.8609  205.1336 H          1 AC5      0.000000
     19 H3         53.5949 -109.3152  204.8718 H          1 AC5      0.000000
     20 Y0         53.3370 -112.6720  202.3310 N.am       2 AC5      0.000000
     21 X          52.6110 -113.8330  201.8370 C.3        2 AC5      0.000000
     22 X          52.3600 -114.7970  202.9890 C.2        2 AC5      0.000000
     23 X          53.0470 -114.7440  204.0100 O.2        2 AC5      0.000000
     24 X          53.3670 -114.5160  200.6890 C.3        2 AC5      0.000000
     25 X          53.2670 -113.6810  199.4240 C.3        2 AC5      0.000000
     26 X          54.8190 -114.7220  201.0700 C.3        2 AC5      0.000000
     27 X          54.3396 -112.7274  202.4401 H          2 AC5      0.000000
     28 X          51.6463 -113.4962  201.4576 H          2 AC5      0.000000
     29 X          52.9133 -115.4893  200.5020 H          2 AC5      0.000000
     30 X          52.2182 -113.5412  199.1623 H          2 AC5      0.000000
     31 X          53.7793 -114.1931  198.6095 H          2 AC5      0.000000
     32 X          53.7322 -112.7097  199.5921 H          2 AC5      0.000000
     33 X          54.8752 -115.3220  201.9783 H          2 AC5      0.000000
     34 X          55.2894 -113.7543  201.2444 H          2 AC5      0.000000
     35 X          55.3372 -115.2374  200.2614 H          2 AC5      0.000000
     36 X          51.3770 -115.6760  202.8100 N.am       3 AC5      0.000000
     37 X          50.8880 -116.5620  203.8730 C.3        3 AC5      0.000000
     38 X          51.9750 -117.4030  204.5010 C.2        3 AC5      0.000000
     39 X          51.8630 -117.7390  205.6990 O.2        3 AC5      0.000000
     40 X          50.2360 -115.7090  204.9580 C.3        3 AC5      0.000000
     41 X          49.8480 -117.5030  203.2820 C.3        3 AC5      0.000000
     42 X          50.9465 -115.7363  201.8983 H          3 AC5      0.000000
     43 X          52.8349 -117.7087  203.9235 H          3 AC5      0.000000
     44 X          50.3094 -118.1143  202.5064 H          3 AC5      0.000000
     45 X          49.0351 -116.9200  202.8491 H          3 AC5      0.000000
     46 X          49.4542 -118.1485  204.0671 H          3 AC5      0.000000
     47 X          50.9775 -115.0333  205.3842 H          3 AC5      0.000000
     48 X          49.4227 -115.1280  204.5232 H          3 AC5      0.000000
     49 X          49.8417 -116.3565  205.7412 H          3 AC5      0.000000
@<TRIPOS>BOND
     1    1    3 1
     2    1   17 1
     3    1   18 1
     4    1   19 1
     5    2    4 2
     6    3    4 1
     7    3    5 1
     8    3    6 1
     9    4   20 am
    10    5    7 1
    11    5    9 1
    12    5   10 1
    13    6    8 1
    14    6   11 1
    15    6   12 1
    16    7    8 1
    17    7   13 1
    18    7   14 1
    19    8   15 1
    20    8   16 1
    21   20   21 1
    22   20   27 1
    23   21   22 1
    24   21   24 1
    25   21   28 1
    26   22   23 2
    27   22   36 am
    28   24   25 1
    29   24   26 1
    30   24   29 1
    31   25   30 1
    32   25   31 1
    33   25   32 1
    34   26   33 1
    35   26   34 1
    36   26   35 1
    37   36   37 1
    38   36   42 1
    39   37   38 1
    40   37   40 1
    41   37   41 1
    42   38   39 2
    43   38   43 1
    44   40   47 1
    45   40   48 1
    46   40   49 1
    47   41   44 1
    48   41   45 1
    49   41   46 1
