# created with PyMOL 2.3.5
@<TRIPOS>MOLECULE
EJ4
58 65 1 0 0
SMALL
USER_CHARGES


@<TRIPOS>ATOM
      1 CAB         0.5590   -3.5160   -0.2700 C.2       1 EJ41        0.0000
      2 CAC         0.4130   -2.3270    0.4560 C.2       1 EJ41        0.0000
      3 CAE         0.8330   -0.4500    1.6980 C.3       1 EJ41        0.0000
      4 CAF         2.0090    0.2030    1.0190 C.2       1 EJ41        0.0000
      5 CAG         1.9330    0.8820   -0.1450 C.2       1 EJ41        0.0000
      6 CAH         3.2680    1.3450   -0.4610 C.2       1 EJ41        0.0000
      7 CAI         3.7890    2.0860   -1.5260 C.2       1 EJ41        0.0000
      8 CAJ         5.1360    2.3460   -1.5010 C.2       1 EJ41        0.0000
      9 CAK         5.9530    1.9010   -0.4740 C.2       1 EJ41        0.0000
     10 CAL         5.4650    1.1660    0.5920 C.2       1 EJ41        0.0000
     11 CAM         4.0990    0.8870    0.5940 C.2       1 EJ41        0.0000
     12 CAO         0.6610    1.0820   -0.9260 C.3       1 EJ41        0.0000
     13 CAP        -0.5250    1.0470    0.0480 C.3       1 EJ41        0.0000
     14 CAR        -1.8160    0.9520   -0.7780 C.3       1 EJ41        0.0000
     15 CAT        -2.9410   -0.3120    0.9620 C.3       1 EJ41        0.0000
     16 CAU        -1.6750   -0.2970    1.8250 C.3       1 EJ41        0.0000
     17 CAV        -0.4530   -0.2010    0.9160 C.3       1 EJ41        0.0000
     18 CAW        -0.4330   -1.3550   -0.0550 C.2       1 EJ41        0.0000
     19 CAX        -1.0740   -1.4080   -1.2720 C.2       1 EJ41        0.0000
     20 CAY        -0.9250   -2.5880   -1.9790 C.2       1 EJ41        0.0000
     21 CAZ        -0.1340   -3.6090   -1.4750 C.2       1 EJ41        0.0000
     22 NAN         3.3050    0.2050    1.4690 N.pl3     1 EJ41        0.0000
     23 NAS        -2.9730    0.8920    0.1230 N.3       1 EJ41        0.0000
     24 OAA         1.3460   -4.5300    0.1770 O.3       1 EJ41        0.0000
     25 OAD         0.9940   -1.8920    1.5950 O.3       1 EJ41        0.0000
     26 OAQ        -0.5260    2.2180    0.8660 O.3       1 EJ41        0.0000
     27 CBA        -1.8410   -0.2180   -1.7490 C.3       1 EJ41        0.0000
     28 CBB        -4.2310    0.9760   -0.6300 C.3       1 EJ41        0.0000
     29 CBC        -5.3970    1.1610    0.3440 C.3       1 EJ41        0.0000
     30 CBD        -6.1930    2.4640    0.2530 C.3       1 EJ41        0.0000
     31 CBE        -6.8120    1.1540   -0.2380 C.3       1 EJ41        0.0000
     32 H1          0.7350   -0.1330    2.7360 H         1 EJ41        0.0000
     33 H2          3.1600    2.4380   -2.3310 H         1 EJ41        0.0000
     34 H3          5.5740    2.9160   -2.3080 H         1 EJ41        0.0000
     35 H4          7.0070    2.1350   -0.5070 H         1 EJ41        0.0000
     36 H5          6.1120    0.8260    1.3870 H         1 EJ41        0.0000
     37 H6          0.6900    2.0470   -1.4320 H         1 EJ41        0.0000
     38 H7          0.5540    0.2850   -1.6610 H         1 EJ41        0.0000
     39 H8         -1.9110    1.8700   -1.3580 H         1 EJ41        0.0000
     40 H9         -2.9380   -1.1990    0.3270 H         1 EJ41        0.0000
     41 H10        -3.8200   -0.3300    1.6070 H         1 EJ41        0.0000
     42 H11        -1.7000    0.5640    2.4940 H         1 EJ41        0.0000
     43 H12        -1.6230   -1.2140    2.4120 H         1 EJ41        0.0000
     44 H13        -1.4270   -2.7150   -2.9260 H         1 EJ41        0.0000
     45 H14        -0.0520   -4.5220   -2.0450 H         1 EJ41        0.0000
     46 H15         3.6120   -0.2160    2.2870 H         1 EJ41        0.0000
     47 H17         2.2650   -4.4750   -0.1180 H         1 EJ41        0.0000
     48 H18        -0.5970    3.0450    0.3700 H         1 EJ41        0.0000
     49 H19        -2.8770   -0.5140   -1.9120 H         1 EJ41        0.0000
     50 H20        -1.4210    0.1090   -2.7000 H         1 EJ41        0.0000
     51 H21        -4.1900    1.8250   -1.3130 H         1 EJ41        0.0000
     52 H22        -4.3760    0.0580   -1.2000 H         1 EJ41        0.0000
     53 H23        -5.2570    0.7240    1.3320 H         1 EJ41        0.0000
     54 H24        -6.5770    2.8850    1.1820 H         1 EJ41        0.0000
     55 H25        -5.8870    3.1900   -0.5010 H         1 EJ41        0.0000
     56 H26        -6.9120    1.0170   -1.3150 H         1 EJ41        0.0000
     57 H27        -7.6030    0.7120    0.3680 H         1 EJ41        0.0000
     58 HN         -2.9274    1.6941    0.7351 H         1 EJ41        0.0000
@<TRIPOS>BOND
     1    9   10 2
     2    8    9 1
     3   10   11 1
     4    7    8 2
     5   11   22 1
     6    6   11 2
     7    4   22 1
     8    6    7 1
     9    5    6 1
    10    4    5 2
    11    3    4 1
    12    5   12 1
    13    3   25 1
    14    3   17 1
    15    2   25 1
    16   12   13 1
    17   13   26 1
    18   13   17 1
    19   13   14 1
    20   17   18 1
    21   16   17 1
    22    2   18 2
    23    1    2 1
    24    1   24 1
    25   18   19 1
    26   15   16 1
    27    1   21 2
    28   14   27 1
    29   14   23 1
    30   19   27 1
    31   19   20 2
    32   20   21 1
    33   15   23 1
    34   23   28 1
    35   28   29 1
    36   29   30 1
    37   30   31 1
    38   29   31 1
    39    3   32 1
    40    7   33 1
    41    8   34 1
    42    9   35 1
    43   10   36 1
    44   12   37 1
    45   12   38 1
    46   14   39 1
    47   15   40 1
    48   15   41 1
    49   16   42 1
    50   16   43 1
    51   20   44 1
    52   21   45 1
    53   22   46 1
    54   24   47 1
    55   26   48 1
    56   27   49 1
    57   27   50 1
    58   28   51 1
    59   28   52 1
    60   29   53 1
    61   30   54 1
    62   30   55 1
    63   31   56 1
    64   31   57 1
    65   58   23 1
@<TRIPOS>SUBSTRUCTURE
     1 EJ41        1 RESIDUE           4 A     EJ4     0 ROOT
