# created with PyMOL 2.3.5
@<TRIPOS>MOLECULE
TYS
28 28 1                 
SMALL
USER_CHARGES
@<TRIPOS>ATOM
1	   N	-3.373	1.476	-0.740	N.3	1	TYS0	0.000	
2	  CA	-3.510	0.055	-0.396	C.3	1	TYS0	0.000	
3	  CB	-2.563	-0.284	0.757	C.3	1	TYS0	0.000	
4	  CG	-1.136	-0.121	0.299	C.2	1	TYS0	0.000	
5	 CD1	-0.502	1.099	0.441	C.2	1	TYS0	0.000	
6	 CD2	-0.463	-1.192	-0.257	C.2	1	TYS0	0.000	
7	 CE1	0.806	1.252	0.023	C.2	1	TYS0	0.000	
8	 CE2	0.845	-1.045	-0.677	C.2	1	TYS0	0.000	
9	  CZ	1.482	0.180	-0.541	C.2	1	TYS0	0.000	
10	  OH	2.768	0.327	-0.954	O.3	1	TYS0	0.000	
11	   S	3.803	0.015	0.118	S.3	1	TYS0	0.000	
12	  O1	5.061	0.409	-0.412	O.2	1	TYS0	0.000	
13	  O2	3.280	0.520	1.339	O.2	1	TYS0	0.000	
14	  O3	3.855	-1.499	0.266	O.3	1	TYS0	0.000	
15	   C	-4.931	-0.226	0.023	C.2	1	TYS0	0.000	
16	   O	-5.645	0.680	0.381	O.co2	1	TYS0	0.000	
17	 OXT	-5.402	-1.483	-0.004	O.3	1	TYS0	0.000	
18	   H	-3.941	1.710	-1.541	 H	1	TYS0	0.000	
19	 HN2	-3.600	2.063	0.048	 H	1	TYS0	0.000	
20	  HA	-3.260	-0.555	-1.263	 H	1	TYS0	0.000	
21	 HB2	-2.755	0.387	1.594	 H	1	TYS0	0.000	
22	 HB3	-2.728	-1.315	1.072	 H	1	TYS0	0.000	
23	 HD1	-1.028	1.934	0.880	 H	1	TYS0	0.000	
24	 HD2	-0.960	-2.146	-0.363	 H	1	TYS0	0.000	
25	 HE1	1.301	2.205	0.133	 H	1	TYS0	0.000	
26	 HE2	1.371	-1.883	-1.111	 H	1	TYS0	0.000	
27	 HO3	4.487	-1.808	0.929	 H	1	TYS0	0.000	
28	 HXT	-6.319	-1.613	0.273	 H	1	TYS0	0.000	
@<TRIPOS>BOND
1 1 2 1
2 1 18 1
3 1 19 1
4 2 3 1
5 2 15 1
6 2 20 1
7 3 4 1
8 3 21 1
9 3 22 1
10 4 5 2
11 4 6 1
12 5 7 1
13 5 23 1
14 6 8 2
15 6 24 1
16 7 9 2
17 7 25 1
18 8 9 1
19 8 26 1
20 9 10 1
21 10 11 1
22 11 12 2
23 11 13 2
24 11 14 1
25 14 27 1
26 15 16 2
27 15 17 1
28 17 28 1
@<TRIPOS>SUBSTRUCTURE
1	TYS0	1	GROUP	1 ****	TYS
