@<TRIPOS>MOLECULE
SK0
20 22 1 0 0
SMALL
NO_CHARGES


@<TRIPOS>ATOM
      1 C01        89.1610  107.7390   78.5080 C.ar      1 SK0451      0.0000
      2 C02        89.6070  107.5910   79.8230 C.ar      1 SK0451      0.0000
      3 C03        88.1800  108.6980   78.2560 C.ar      1 SK0451      0.0000
      4 C04        89.0880  108.3820   80.8370 C.ar      1 SK0451      0.0000
      5 C05        87.6660  109.4870   79.2740 C.ar      1 SK0451      0.0000
      6 C06        88.1200  109.3300   80.5690 C.ar      1 SK0451      0.0000
      7 C07        89.7210  106.8610   77.3540 C.3       1 SK0451      0.0000
      8 C08        91.2620  106.8610   77.2170 C.3       1 SK0451      0.0000
      9 C09        90.6550  106.5900   80.2290 C.3       1 SK0451      0.0000
     10 C10        91.9930  106.7980   79.5440 C.3       1 SK0451      0.0000
     11 C11        89.2000  107.2640   75.9690 C.ar      1 SK0451      0.0000
     12 C12        88.0900  106.6210   75.4340 C.ar      1 SK0451      0.0000
     13 C13        89.8370  108.2630   75.2290 C.ar      1 SK0451      0.0000
     14 C14        87.6140  106.9780   74.1810 C.ar      1 SK0451      0.0000
     15 C15        89.3610  108.6180   73.9780 C.ar      1 SK0451      0.0000
     16 C16        88.2500  107.9750   73.4540 C.ar      1 SK0451      0.0000
     17 N01        92.0040  106.1230   78.2450 N.4       1 SK0451      0.0000
     18 O01        86.7150  110.4180   79.0050 O.3       1 SK0451      0.0000
     19 O02        87.6210  110.0990   81.5750 O.3       1 SK0451      0.0000
     20 CL01       89.6570  108.1820   82.4480 C.3       1 SK0451      0.0000
@<TRIPOS>BOND
     1    1    2 ar
     2    1    3 ar
     3    1    7 1
     4    2    4 ar
     5    2    9 1
     6    3    5 ar
     7    4    6 ar
     8    4   20 1
     9    5    6 ar
    10    5   18 1
    11    6   19 1
    12    7    8 1
    13    7   11 1
    14    8   17 1
    15    9   10 1
    16   10   17 1
    17   11   12 ar
    18   11   13 ar
    19   12   14 ar
    20   13   15 ar
    21   14   16 ar
    22   15   16 ar
@<TRIPOS>SUBSTRUCTURE
     1 SK0451      1 RESIDUE           4 R     SK0     0 ROOT
