@<TRIPOS>MOLECULE
P2E
25 25 1 0 0
SMALL
NO_CHARGES


@<TRIPOS>ATOM
      1 C2         79.9550  118.7340  123.6650 C.3       1 P2E437      0.0000
      2 C3         80.6460  117.6350  122.8630 C.3       1 P2E437      0.0000
      3 C4         82.1570  117.7590  123.0310 C.3       1 P2E437      0.0000
      4 C5         82.8530  117.0660  121.8660 C.2       1 P2E437      0.0000
      5 C6         82.6570  115.7440  121.8620 C.2       1 P2E437      0.0000
      6 C7         83.2650  115.0810  120.6320 C.3       1 P2E437      0.0000
      7 C8         83.0040  113.5270  120.6760 C.3       1 P2E437      0.0000
      8 C9         81.5910  113.2890  120.5780 C.2       1 P2E437      0.0000
      9 O3         80.8150  113.8600  121.2620 O.2       1 P2E437      0.0000
     10 C12        83.5770  112.9010  119.4420 C.3       1 P2E437      0.0000
     11 C11        82.5520  111.8190  119.0030 C.3       1 P2E437      0.0000
     12 O4         82.5020  111.7470  117.6760 O.3       1 P2E437      0.0000
     13 C10        81.1390  112.2990  119.5740 C.3       1 P2E437      0.0000
     14 C13        84.9200  112.2740  119.7210 C.2       1 P2E437      0.0000
     15 C14        85.9330  113.1120  119.4650 C.2       1 P2E437      0.0000
     16 C15        87.0680  112.4720  118.6700 C.3       1 P2E437      0.0000
     17 O5         86.5370  111.5460  117.7670 O.3       1 P2E437      0.0000
     18 C16        87.8150  113.5600  117.9030 C.3       1 P2E437      0.0000
     19 C17        88.4480  112.9750  116.6420 C.3       1 P2E437      0.0000
     20 C18        89.1590  114.0840  115.8700 C.3       1 P2E437      0.0000
     21 C19        89.6970  113.5310  114.5530 C.3       1 P2E437      0.0000
     22 C20        89.8990  114.6790  113.5690 C.3       1 P2E437      0.0000
     23 O1         78.4650  117.2820  124.8860 O.co2     1 P2E437      0.0000
     24 C1         78.5720  118.2570  124.1000 C.2       1 P2E437      0.0000
     25 O2         77.5390  118.8330  123.6740 O.co2     1 P2E437      0.0000
@<TRIPOS>BOND
     1    1    2 1
     2    1   24 1
     3    2    3 1
     4    3    4 1
     5    4    5 2
     6    5    6 1
     7    6    7 1
     8    7    8 1
     9    7   10 1
    10    8    9 2
    11    8   13 1
    12   10   11 1
    13   10   14 1
    14   11   12 1
    15   11   13 1
    16   14   15 2
    17   15   16 1
    18   16   17 1
    19   16   18 1
    20   18   19 1
    21   19   20 1
    22   20   21 1
    23   21   22 1
    24   23   24 2
    25   24   25 2
@<TRIPOS>SUBSTRUCTURE
     1 P2E437      1 RESIDUE           4 R     P2E     0 ROOT
