# created with PyMOL 2.3.5
@<TRIPOS>MOLECULE
P2E
56 56 1 0 0
SMALL
USER_CHARGES


@<TRIPOS>ATOM
      1 C2          3.9310    3.0420    0.0320 C.3       1 P2E1        0.0000
      2 C3          4.4680    1.6530   -0.3230 C.3       1 P2E1        0.0000
      3 C4          3.3120    0.7620   -0.7820 C.3       1 P2E1        0.0000
      4 C5          3.8410   -0.6060   -1.1310 C.2       1 P2E1        0.0000
      5 C6          3.2990   -1.6730   -0.5990 C.2       1 P2E1        0.0000
      6 C7          2.0440   -1.5490    0.2270 C.3       1 P2E1        0.0000
      7 C8          0.9780   -2.5000   -0.3200 C.3       1 P2E1        0.0000
      8 C9          1.4100   -3.9370   -0.1110 C.2       1 P2E1        0.0000
      9 O3          2.3970   -4.4610   -0.5690 O.2       1 P2E1        0.0000
     10 C12        -0.3430   -2.3130    0.4550 C.3       1 P2E1        0.0000
     11 C11        -0.9090   -3.7520    0.5700 C.3       1 P2E1        0.0000
     12 O4         -1.7830   -3.8650    1.6950 O.3       1 P2E1        0.0000
     13 C10         0.3720   -4.5960    0.7800 C.3       1 P2E1        0.0000
     14 C13        -1.2900   -1.4320   -0.3170 C.2       1 P2E1        0.0000
     15 C14        -1.7130   -0.3080    0.2060 C.2       1 P2E1        0.0000
     16 C15        -2.6600    0.5740   -0.5660 C.3       1 P2E1        0.0000
     17 O5         -3.0370   -0.0800   -1.7790 O.3       1 P2E1        0.0000
     18 C16        -3.9080    0.8440    0.2770 C.3       1 P2E1        0.0000
     19 C17        -4.8120    1.8380   -0.4540 C.3       1 P2E1        0.0000
     20 C18        -6.0600    2.1090    0.3890 C.3       1 P2E1        0.0000
     21 C19        -6.9640    3.1030   -0.3420 C.3       1 P2E1        0.0000
     22 C20        -8.2120    3.3730    0.5010 C.3       1 P2E1        0.0000
     23 O1          6.1940    3.4800    0.5190 O.co2     1 P2E1        0.0000
     24 C1          5.0690    3.9190    0.4840 C.2       1 P2E1        0.0000
     25 O2          4.8340    5.1900    0.8480 O.3       1 P2E1        0.0000
     26 H22         3.1989    2.9543    0.8348 H         1 P2E1        0.0000
     27 H23         3.4577    3.4838   -0.8449 H         1 P2E1        0.0000
     28 H32         4.9411    1.2113    0.5540 H         1 P2E1        0.0000
     29 H33         5.2003    1.7406   -1.1256 H         1 P2E1        0.0000
     30 H42         2.8392    1.2034   -1.6593 H         1 P2E1        0.0000
     31 H43         2.5795    0.6747    0.0205 H         1 P2E1        0.0000
     32 H5          4.6669   -0.7061   -1.8197 H         1 P2E1        0.0000
     33 H6          3.7512   -2.6418   -0.7521 H         1 P2E1        0.0000
     34 H72         1.6763   -0.5241    0.1775 H         1 P2E1        0.0000
     35 H73         2.2638   -1.8067    1.2630 H         1 P2E1        0.0000
     36 H8          0.8177   -2.3095   -1.3812 H         1 P2E1        0.0000
     37 H12        -0.1516   -1.8962    1.4438 H         1 P2E1        0.0000
     38 H11        -1.4191   -4.0429   -0.3483 H         1 P2E1        0.0000
     39 H102        0.6857   -4.5673    1.8235 H         1 P2E1        0.0000
     40 H103        0.2022   -5.6255    0.4647 H         1 P2E1        0.0000
     41 H13        -1.6203   -1.7271   -1.3020 H         1 P2E1        0.0000
     42 H14        -1.3828   -0.0132    1.1911 H         1 P2E1        0.0000
     43 H15        -2.1682    1.5182   -0.7999 H         1 P2E1        0.0000
     44 H162       -3.6127    1.2616    1.2396 H         1 P2E1        0.0000
     45 H163       -4.4480   -0.0894    0.4361 H         1 P2E1        0.0000
     46 H172       -4.2716    2.7712   -0.6131 H         1 P2E1        0.0000
     47 H173       -5.1074    1.4206   -1.4166 H         1 P2E1        0.0000
     48 H182       -5.7644    2.5269    1.3513 H         1 P2E1        0.0000
     49 H183       -6.6003    1.1759    0.5486 H         1 P2E1        0.0000
     50 H192       -7.2593    2.6854   -1.3046 H         1 P2E1        0.0000
     51 H193       -6.4240    4.0364   -0.5011 H         1 P2E1        0.0000
     52 H201       -8.8565    4.0813   -0.0196 H         1 P2E1        0.0000
     53 H202       -7.9166    3.7905    1.4636 H         1 P2E1        0.0000
     54 H203       -8.7519    2.4396    0.6601 H         1 P2E1        0.0000
     55 HO4        -2.1222   -4.7615    1.7485 H         1 P2E1        0.0000
     56 HO5        -2.2587   -0.2168   -2.3240 H         1 P2E1        0.0000
@<TRIPOS>BOND
     1    1    2 1
     2    1   24 1
     3    2    3 1
     4    3    4 1
     5    4    5 2
     6    5    6 1
     7    6    7 1
     8    7    8 1
     9    7   10 1
    10    8    9 2
    11    8   13 1
    12   10   11 1
    13   10   14 1
    14   11   12 1
    15   11   13 1
    16   14   15 2
    17   15   16 1
    18   16   17 1
    19   16   18 1
    20   18   19 1
    21   19   20 1
    22   20   21 1
    23   21   22 1
    24   23   24 2
    25   24   25 1
    26   26    1 1
    27   27    1 1
    28   28    2 1
    29   29    2 1
    30   30    3 1
    31   31    3 1
    32   32    4 1
    33   33    5 1
    34   34    6 1
    35   35    6 1
    36   36    7 1
    37   37   10 1
    38   38   11 1
    39   39   13 1
    40   40   13 1
    41   41   14 1
    42   42   15 1
    43   43   16 1
    44   44   18 1
    45   45   18 1
    46   46   19 1
    47   47   19 1
    48   48   20 1
    49   49   20 1
    50   50   21 1
    51   51   21 1
    52   52   22 1
    53   53   22 1
    54   54   22 1
    55   55   12 1
    56   56   17 1
@<TRIPOS>SUBSTRUCTURE
     1 P2E1        1 RESIDUE           4 A     P2E     0 ROOT
