# created with PyMOL 2.3.5
@<TRIPOS>MOLECULE
OIC
27 28 1                 
SMALL
USER_CHARGES
@<TRIPOS>ATOM
1	   N	-0.120	-0.739	-0.996	N.3	1	OIC0	0.000	
2	  CA	-1.259	-0.849	-0.053	C.3	1	OIC0	0.000	
3	   C	-2.233	0.276	-0.291	C.2	1	OIC0	0.000	
4	   O	-1.881	1.262	-0.895	O.co2	1	OIC0	0.000	
5	 OXT	-3.491	0.183	0.167	O.3	1	OIC0	0.000	
6	  CB	-0.678	-0.747	1.371	C.3	1	OIC0	0.000	
7	  CG	0.852	-0.564	1.167	C.3	1	OIC0	0.000	
8	  CD	1.059	-1.185	-0.227	C.3	1	OIC0	0.000	
9	  C4	1.112	0.944	1.130	C.3	1	OIC0	0.000	
10	  C5	2.492	1.243	0.551	C.3	1	OIC0	0.000	
11	  C6	2.536	0.732	-0.893	C.3	1	OIC0	0.000	
12	  C7	2.365	-0.787	-0.871	C.3	1	OIC0	0.000	
13	   H	-0.264	-1.322	-1.807	 H	1	OIC0	0.000	
14	  HA	-1.759	-1.808	-0.185	 H	1	OIC0	0.000	
15	 HXT	-4.079	0.929	-0.011	 H	1	OIC0	0.000	
16	 HB2	-1.097	0.114	1.891	 H	1	OIC0	0.000	
17	 HB3	-0.879	-1.662	1.929	 H	1	OIC0	0.000	
18	  HG	1.437	-1.071	1.934	 H	1	OIC0	0.000	
19	  HD	1.035	-2.271	-0.139	 H	1	OIC0	0.000	
20	 H41	0.352	1.423	0.513	 H	1	OIC0	0.000	
21	 H42	1.054	1.342	2.143	 H	1	OIC0	0.000	
22	 H51	2.669	2.318	0.564	 H	1	OIC0	0.000	
23	 H52	3.254	0.736	1.142	 H	1	OIC0	0.000	
24	 H61	1.728	1.184	-1.468	 H	1	OIC0	0.000	
25	 H62	3.496	0.987	-1.344	 H	1	OIC0	0.000	
26	 H71	3.188	-1.230	-0.311	 H	1	OIC0	0.000	
27	 H72	2.388	-1.163	-1.894	 H	1	OIC0	0.000	
@<TRIPOS>BOND
1 1 2 1
2 1 8 1
3 1 13 1
4 2 3 1
5 2 6 1
6 2 14 1
7 3 4 2
8 3 5 1
9 5 15 1
10 6 7 1
11 6 16 1
12 6 17 1
13 7 8 1
14 7 9 1
15 7 18 1
16 8 12 1
17 8 19 1
18 9 10 1
19 9 20 1
20 9 21 1
21 10 11 1
22 10 22 1
23 10 23 1
24 11 12 1
25 11 24 1
26 11 25 1
27 12 26 1
28 12 27 1
@<TRIPOS>SUBSTRUCTURE
1	OIC0	1	GROUP	1 ****	OIC
