@<TRIPOS>MOLECULE
NEC
22 24 1 0 0
SMALL
NO_CHARGES


@<TRIPOS>ATOM
      1 C5'        84.8000   54.2810   72.4010 C.2       1 NEC419      0.0000
      2 O5'        85.9490   53.9230   72.1790 O.2       1 NEC419      0.0000
      3 N5'        84.2250   55.3070   71.7660 N.am      1 NEC419      0.0000
      4 C51        84.9230   56.0920   70.7640 C.3       1 NEC419      0.0000
      5 C52        84.0970   57.2810   70.3290 C.3       1 NEC419      0.0000
      6 C4'        83.9550   53.5510   73.4150 C.3       1 NEC419      0.0000
      7 O4'        83.6190   52.2590   72.9020 O.3       1 NEC419      0.0000
      8 C3'        84.6620   53.3510   74.7540 C.3       1 NEC419      0.0000
      9 O3'        84.0230   54.1250   75.7760 O.3       1 NEC419      0.0000
     10 C2'        84.5980   51.8580   75.0400 C.3       1 NEC419      0.0000
     11 O2'        83.7590   51.5600   76.1640 O.3       1 NEC419      0.0000
     12 C1'        84.0410   51.2060   73.7760 C.3       1 NEC419      0.0000
     13 N9         85.0540   50.3340   73.1110 N.ar      1 NEC419      0.0000
     14 C8         85.6250   50.5320   71.9010 C.ar      1 NEC419      0.0000
     15 N7         86.5000   49.5340   71.6090 N.ar      1 NEC419      0.0000
     16 C5         86.4990   48.6710   72.6370 C.ar      1 NEC419      0.0000
     17 C6         87.1930   47.4000   72.9770 C.ar      1 NEC419      0.0000
     18 N6         88.0880   46.8430   72.1250 N.pl3     1 NEC419      0.0000
     19 N1         86.8990   46.8180   74.1670 N.ar      1 NEC419      0.0000
     20 C2         86.0090   47.3560   75.0320 C.ar      1 NEC419      0.0000
     21 N3         85.3470   48.5080   74.7810 N.ar      1 NEC419      0.0000
     22 C4         85.5410   49.2000   73.6250 C.ar      1 NEC419      0.0000
@<TRIPOS>BOND
     1    1    2 2
     2    1    3 am
     3    1    6 1
     4    3    4 1
     5    4    5 1
     6    6    7 1
     7    6    8 1
     8    7   12 1
     9    8    9 1
    10    8   10 1
    11   10   11 1
    12   10   12 1
    13   12   13 1
    14   13   14 ar
    15   13   22 ar
    16   14   15 ar
    17   15   16 ar
    18   16   17 ar
    19   16   22 ar
    20   17   18 1
    21   17   19 ar
    22   19   20 ar
    23   20   21 ar
    24   21   22 ar
@<TRIPOS>SUBSTRUCTURE
     1 NEC419      6 RESIDUE           4 A     NEC     0 ROOT
