# created with PyMOL 2.3.5
@<TRIPOS>MOLECULE
NEC
38 40 1                 
SMALL
USER_CHARGES
@<TRIPOS>ATOM
1	 C5'	0.696	0.496	3.295	C.2	1	NEC0	0.000	
2	 O5'	1.865	0.741	3.083	O.2	1	NEC0	0.000	
3	 N5'	0.302	0.096	4.520	N.pl3	1	NEC0	0.000	
4	 C51	1.286	-0.043	5.596	C.3	1	NEC0	0.000	
5	 C52	0.583	-0.507	6.873	C.3	1	NEC0	0.000	
6	 C4'	-0.316	0.641	2.188	C.3	1	NEC0	0.000	
7	 O4'	0.333	0.997	0.949	O.3	1	NEC0	0.000	
8	 C3'	-0.979	-0.724	1.873	C.3	1	NEC0	0.000	
9	 O3'	-2.099	-0.962	2.728	O.3	1	NEC0	0.000	
10	 C2'	-1.435	-0.530	0.405	C.3	1	NEC0	0.000	
11	 O2'	-2.818	-0.172	0.354	O.3	1	NEC0	0.000	
12	 C1'	-0.559	0.626	-0.114	C.3	1	NEC0	0.000	
13	  N9	0.210	0.187	-1.280	N.pl3	1	NEC0	0.000	
14	  C8	1.445	-0.388	-1.261	C.2	1	NEC0	0.000	
15	  N7	1.832	-0.652	-2.476	N.2	1	NEC0	0.000	
16	  C5	0.871	-0.264	-3.349	C.2	1	NEC0	0.000	
17	  C6	0.735	-0.297	-4.747	C.2	1	NEC0	0.000	
18	  N6	1.738	-0.821	-5.544	N.pl3	1	NEC0	0.000	
19	  N1	-0.379	0.184	-5.286	N.2	1	NEC0	0.000	
20	  C2	-1.341	0.685	-4.534	C.2	1	NEC0	0.000	
21	  N3	-1.257	0.737	-3.221	N.2	1	NEC0	0.000	
22	  C4	-0.182	0.273	-2.592	C.2	1	NEC0	0.000	
23	 HN5	-0.632	-0.099	4.689	 H	1	NEC0	0.000	
24	H511	1.768	0.917	5.776	 H	1	NEC0	0.000	
25	H512	2.038	-0.778	5.308	 H	1	NEC0	0.000	
26	H521	1.315	-0.612	7.674	 H	1	NEC0	0.000	
27	H522	-0.168	0.227	7.162	 H	1	NEC0	0.000	
28	H523	0.101	-1.469	6.694	 H	1	NEC0	0.000	
29	 H4'	-1.070	1.382	2.453	 H	1	NEC0	0.000	
30	 H3'	-0.253	-1.533	1.952	 H	1	NEC0	0.000	
31	HO3'	-1.749	-1.074	3.623	 H	1	NEC0	0.000	
32	 H2'	-1.254	-1.435	-0.174	 H	1	NEC0	0.000	
33	HO2'	-3.315	-0.931	0.690	 H	1	NEC0	0.000	
34	 H1'	-1.188	1.475	-0.383	 H	1	NEC0	0.000	
35	  H8	2.019	-0.594	-0.370	 H	1	NEC0	0.000	
36	HN61	1.633	-0.838	-6.508	 H	1	NEC0	0.000	
37	HN62	2.547	-1.170	-5.138	 H	1	NEC0	0.000	
38	  H2	-2.230	1.067	-5.013	 H	1	NEC0	0.000	
@<TRIPOS>BOND
1 1 2 2
2 1 3 1
3 1 6 1
4 3 4 1
5 3 23 1
6 4 5 1
7 4 24 1
8 4 25 1
9 5 26 1
10 5 27 1
11 5 28 1
12 6 7 1
13 6 8 1
14 6 29 1
15 7 12 1
16 8 9 1
17 8 10 1
18 8 30 1
19 9 31 1
20 10 11 1
21 10 12 1
22 10 32 1
23 11 33 1
24 12 13 1
25 12 34 1
26 13 14 1
27 13 22 1
28 14 15 2
29 14 35 1
30 15 16 1
31 16 17 1
32 16 22 2
33 17 18 1
34 17 19 2
35 18 36 1
36 18 37 1
37 19 20 1
38 20 21 2
39 20 38 1
40 21 22 1
@<TRIPOS>SUBSTRUCTURE
1	NEC0	1	GROUP	1 ****	NEC
