# created with PyMOL 2.3.5
@<TRIPOS>MOLECULE
9EC
49 53 1 0 0
SMALL
USER_CHARGES


@<TRIPOS>ATOM
      1 C10        -3.2930   -0.1160   -0.1570 C.2       1 9EC1        0.0000
      2 C11        -3.2710    1.3580   -0.0680 C.2       1 9EC1        0.0000
      3 C12        -3.9080    2.1990   -0.9080 C.2       1 9EC1        0.0000
      4 C13        -3.7380    3.5380   -0.6230 C.2       1 9EC1        0.0000
      5 C14        -2.9700    3.7970    0.4390 C.2       1 9EC1        0.0000
      6 C02         0.1920   -0.8080    0.5370 C.2       1 9EC1        0.0000
      7 C04        -2.0960   -0.8430   -0.1140 C.2       1 9EC1        0.0000
      8 C05        -2.1270   -2.2270   -0.1910 C.2       1 9EC1        0.0000
      9 C06        -3.3360   -2.8870   -0.3110 C.2       1 9EC1        0.0000
     10 C07        -4.5230   -2.1720   -0.3550 C.2       1 9EC1        0.0000
     11 C09        -4.5070   -0.7930   -0.2780 C.2       1 9EC1        0.0000
     12 C17         2.4990   -0.9480    1.1340 C.3       1 9EC1        0.0000
     13 C18         3.1800   -1.7900    0.0510 C.3       1 9EC1        0.0000
     14 C19         3.8410   -0.8500   -0.9690 C.3       1 9EC1        0.0000
     15 C20         2.8070    0.2350   -1.3520 C.3       1 9EC1        0.0000
     16 C21         3.0100    1.3580   -0.3130 C.3       1 9EC1        0.0000
     17 C24         5.7590    0.6250   -1.2040 C.3       1 9EC1        0.0000
     18 C25         5.7130   -1.0110    0.5720 C.3       1 9EC1        0.0000
     19 C26         4.1350    0.8420    0.6130 C.3       1 9EC1        0.0000
     20 C27         3.5090    0.0330    1.7370 C.3       1 9EC1        0.0000
     21 F08        -5.6980   -2.8270   -0.4720 F         1 9EC1        0.0000
     22 N03        -0.8730   -0.1740    0.0070 N.pl3     1 9EC1        0.0000
     23 N23         4.9070   -0.1010   -0.2520 N.4       1 9EC1        0.0000
     24 O01         0.0650   -1.9210    1.0070 O.co2     1 9EC1        0.0000
     25 O16         1.3970   -0.2060    0.5470 O.3       1 9EC1        0.0000
     26 O22         3.2950    1.5310   -1.7030 O.3       1 9EC1        0.0000
     27 S15        -2.4140    2.2900    1.1530 S.3       1 9EC1        0.0000
     28 H37        -4.5040    1.8510   -1.7390 H         1 9EC1        0.0000
     29 H38        -4.1920    4.3190   -1.2140 H         1 9EC1        0.0000
     30 H39        -2.7300    4.7840    0.8060 H         1 9EC1        0.0000
     31 H34        -1.2060   -2.7890   -0.1590 H         1 9EC1        0.0000
     32 H35        -3.3550   -3.9650   -0.3720 H         1 9EC1        0.0000
     33 H36        -5.4340   -0.2390   -0.3080 H         1 9EC1        0.0000
     34 H28         2.1180   -1.6040    1.9170 H         1 9EC1        0.0000
     35 H40         3.9390   -2.4260    0.5070 H         1 9EC1        0.0000
     36 H41         2.4370   -2.4110   -0.4500 H         1 9EC1        0.0000
     37 H29         4.2160   -1.3870   -1.8400 H         1 9EC1        0.0000
     38 H30         1.8290   -0.0930   -1.7040 H         1 9EC1        0.0000
     39 H31         2.1780    1.8940    0.1430 H         1 9EC1        0.0000
     40 H43         6.1930   -0.0790   -1.9140 H         1 9EC1        0.0000
     41 H42         5.1580    1.3600   -1.7410 H         1 9EC1        0.0000
     42 H44         6.5560    1.1340   -0.6630 H         1 9EC1        0.0000
     43 H45         6.5040   -0.4480    1.0680 H         1 9EC1        0.0000
     44 H46         5.0770   -1.4810    1.3220 H         1 9EC1        0.0000
     45 H47         6.1560   -1.7790   -0.0620 H         1 9EC1        0.0000
     46 H32         4.7540    1.6570    0.9890 H         1 9EC1        0.0000
     47 H49         2.9980    0.7040    2.4270 H         1 9EC1        0.0000
     48 H48         4.2830   -0.5210    2.2680 H         1 9EC1        0.0000
     49 H33        -0.7920    0.7460   -0.2900 H         1 9EC1        0.0000
@<TRIPOS>BOND
     1   18   23 1
     2   17   23 1
     3   14   23 1
     4   19   23 1
     5   13   14 1
     6   14   15 1
     7   12   13 1
     8   15   26 1
     9   15   16 1
    10   19   20 1
    11   16   19 1
    12   12   20 1
    13   12   25 1
    14   16   26 1
    15    6   24 2
    16    6   25 1
    17    4    5 2
    18    5   27 1
    19    6   22 1
    20    3    4 1
    21    2   27 1
    22    7   22 1
    23    2    3 2
    24    1    2 1
    25    1    7 2
    26    7    8 1
    27    1   11 1
    28    8    9 2
    29   10   11 2
    30    9   10 1
    31   10   21 1
    32    3   28 1
    33    4   29 1
    34    5   30 1
    35    8   31 1
    36    9   32 1
    37   11   33 1
    38   12   34 1
    39   13   35 1
    40   13   36 1
    41   14   37 1
    42   15   38 1
    43   16   39 1
    44   17   40 1
    45   17   41 1
    46   17   42 1
    47   18   43 1
    48   18   44 1
    49   18   45 1
    50   19   46 1
    51   20   47 1
    52   20   48 1
    53   22   49 1
@<TRIPOS>SUBSTRUCTURE
     1 9EC1        1 RESIDUE           4 A     9EC     0 ROOT
