# created with PyMOL 2.3.5
@<TRIPOS>MOLECULE
EDO
10 9 1                  
SMALL
USER_CHARGES
@<TRIPOS>ATOM
1	  C1	-0.609	-0.282	0.710	C.3	1	EDO0	0.000	
2	  O1	0.557	0.167	1.402	O.3	1	EDO0	0.000	
3	  C2	-0.609	0.282	-0.710	C.3	1	EDO0	0.000	
4	  O2	0.557	-0.167	-1.402	O.3	1	EDO0	0.000	
5	 H11	-0.609	-1.372	0.668	 H	1	EDO0	0.000	
6	 H12	-1.499	0.060	1.238	 H	1	EDO0	0.000	
7	 HO1	0.518	-0.210	2.291	 H	1	EDO0	0.000	
8	 H21	-1.499	-0.060	-1.238	 H	1	EDO0	0.000	
9	 H22	-0.609	1.371	-0.668	 H	1	EDO0	0.000	
10	 HO2	0.518	0.210	-2.291	 H	1	EDO0	0.000	
@<TRIPOS>BOND
1 1 2 1
2 1 3 1
3 1 5 1
4 1 6 1
5 2 7 1
6 3 4 1
7 3 8 1
8 3 9 1
9 4 10 1
@<TRIPOS>SUBSTRUCTURE
1	EDO0	1	GROUP	1 ****	EDO
