# created with PyMOL 2.3.5
@<TRIPOS>MOLECULE
PGW
128 127 1               
SMALL
USER_CHARGES
@<TRIPOS>ATOM
1	 CAD	-4.601	3.593	-4.563	C.3	1	PGW0	0.000	
2	 OAE	-5.293	2.459	-5.092	O.3	1	PGW0	0.000	
3	 OAF	-4.739	2.783	-2.291	O.3	1	PGW0	0.000	
4	   P	-1.158	4.926	-0.954	P.3	1	PGW0	0.000	
5	 C01	-0.440	3.143	2.940	C.3	1	PGW0	0.000	
6	  C1	2.930	2.964	1.628	C.2	1	PGW0	0.000	
7	 O01	1.606	2.751	1.679	O.3	1	PGW0	0.000	
8	 C02	0.795	3.782	2.303	C.3	1	PGW0	0.000	
9	  C2	3.835	1.939	0.995	C.3	1	PGW0	0.000	
10	 O02	3.397	3.979	2.089	O.co2	1	PGW0	0.000	
11	 C03	0.356	4.796	1.244	C.3	1	PGW0	0.000	
12	  C3	5.284	2.424	1.067	C.3	1	PGW0	0.000	
13	 O03	-1.279	2.570	1.903	O.3	1	PGW0	0.000	
14	 C04	-2.985	4.358	-2.819	C.3	1	PGW0	0.000	
15	  C4	6.203	1.382	0.425	C.3	1	PGW0	0.000	
16	 O04	-2.692	1.919	3.473	O.co2	1	PGW0	0.000	
17	 C05	-3.823	3.178	-3.314	C.3	1	PGW0	0.000	
18	  C5	7.652	1.867	0.497	C.3	1	PGW0	0.000	
19	 C06	12.958	-1.440	0.269	C.3	1	PGW0	0.000	
20	  C6	8.571	0.825	-0.145	C.3	1	PGW0	0.000	
21	 C07	13.980	-2.388	-0.362	C.3	1	PGW0	0.000	
22	  C7	10.020	1.310	-0.073	C.3	1	PGW0	0.000	
23	 C08	13.646	-3.830	0.027	C.3	1	PGW0	0.000	
24	  C8	10.939	0.269	-0.715	C.3	1	PGW0	0.000	
25	 C09	14.667	-4.778	-0.604	C.3	1	PGW0	0.000	
26	  C9	12.366	0.746	-0.644	C.2	1	PGW0	0.000	
27	 C10	13.288	-0.020	-0.114	C.2	1	PGW0	0.000	
28	 C11	14.333	-6.220	-0.215	C.3	1	PGW0	0.000	
29	 O11	-0.506	4.156	0.301	O.3	1	PGW0	0.000	
30	 C12	15.354	-7.168	-0.846	C.3	1	PGW0	0.000	
31	 O12	-2.170	3.938	-1.723	O.3	1	PGW0	0.000	
32	 C13	15.020	-8.609	-0.458	C.3	1	PGW0	0.000	
33	 O13	0.008	5.392	-1.962	O.3	1	PGW0	0.000	
34	 C14	16.041	-9.558	-1.089	C.3	1	PGW0	0.000	
35	 O14	-1.898	6.114	-0.473	O.co2	1	PGW0	0.000	
36	 C15	-11.902	-3.623	-0.029	C.3	1	PGW0	0.000	
37	 C16	-13.109	-4.239	0.680	C.3	1	PGW0	0.000	
38	 C17	-14.044	-4.866	-0.356	C.3	1	PGW0	0.000	
39	 C18	-15.252	-5.483	0.353	C.3	1	PGW0	0.000	
40	 C19	-2.411	1.967	2.298	C.2	1	PGW0	0.000	
41	 C20	-3.332	1.349	1.278	C.3	1	PGW0	0.000	
42	 C21	-4.539	0.733	1.987	C.3	1	PGW0	0.000	
43	 C22	-5.474	0.106	0.951	C.3	1	PGW0	0.000	
44	 C23	-6.682	-0.510	1.660	C.3	1	PGW0	0.000	
45	 C24	-7.617	-1.137	0.624	C.3	1	PGW0	0.000	
46	 C25	-8.824	-1.753	1.334	C.3	1	PGW0	0.000	
47	 C26	-9.759	-2.380	0.298	C.3	1	PGW0	0.000	
48	 C27	-10.967	-2.996	1.007	C.3	1	PGW0	0.000	
49	 C28	-16.187	-6.110	-0.683	C.3	1	PGW0	0.000	
50	 C29	-18.329	-7.353	-1.009	C.3	1	PGW0	0.000	
51	 C30	-17.394	-6.726	0.027	C.3	1	PGW0	0.000	
52	 HAD	-3.909	3.978	-5.312	 H	1	PGW0	0.000	
53	HADA	-5.322	4.368	-4.302	 H	1	PGW0	0.000	
54	HOAE	-5.809	2.649	-5.888	 H	1	PGW0	0.000	
55	HOAF	-5.356	3.478	-2.025	 H	1	PGW0	0.000	
56	 H01	-0.128	2.359	3.630	 H	1	PGW0	0.000	
57	H01A	-1.002	3.903	3.484	 H	1	PGW0	0.000	
58	 H02	1.380	4.288	3.070	 H	1	PGW0	0.000	
59	  H2	3.741	0.993	1.529	 H	1	PGW0	0.000	
60	 H2A	3.550	1.797	-0.047	 H	1	PGW0	0.000	
61	 H03	-0.176	5.616	1.725	 H	1	PGW0	0.000	
62	H03A	1.234	5.185	0.728	 H	1	PGW0	0.000	
63	  H3	5.378	3.369	0.534	 H	1	PGW0	0.000	
64	 H3A	5.569	2.565	2.110	 H	1	PGW0	0.000	
65	 H04	-2.349	4.717	-3.629	 H	1	PGW0	0.000	
66	H04A	-3.645	5.162	-2.494	 H	1	PGW0	0.000	
67	  H4	6.109	0.436	0.959	 H	1	PGW0	0.000	
68	 H4A	5.919	1.240	-0.618	 H	1	PGW0	0.000	
69	 H05	-3.166	2.342	-3.556	 H	1	PGW0	0.000	
70	  H5	7.746	2.812	-0.036	 H	1	PGW0	0.000	
71	 H5A	7.937	2.008	1.540	 H	1	PGW0	0.000	
72	 H06	11.960	-1.691	-0.089	 H	1	PGW0	0.000	
73	H06A	12.991	-1.540	1.354	 H	1	PGW0	0.000	
74	  H6	8.477	-0.120	0.389	 H	1	PGW0	0.000	
75	 H6A	8.287	0.684	-1.188	 H	1	PGW0	0.000	
76	 H07	13.947	-2.288	-1.447	 H	1	PGW0	0.000	
77	H07A	14.978	-2.138	-0.004	 H	1	PGW0	0.000	
78	  H7	10.114	2.256	-0.606	 H	1	PGW0	0.000	
79	 H7A	10.304	1.452	0.970	 H	1	PGW0	0.000	
80	 H08	13.678	-3.930	1.112	 H	1	PGW0	0.000	
81	H08A	12.647	-4.080	-0.331	 H	1	PGW0	0.000	
82	  H8	10.845	-0.677	-0.181	 H	1	PGW0	0.000	
83	 H8A	10.655	0.127	-1.758	 H	1	PGW0	0.000	
84	 H09	14.634	-4.677	-1.689	 H	1	PGW0	0.000	
85	H09A	15.665	-4.527	-0.246	 H	1	PGW0	0.000	
86	 H11	14.365	-6.320	0.869	 H	1	PGW0	0.000	
87	H11A	13.334	-6.470	-0.574	 H	1	PGW0	0.000	
88	 H12	15.321	-7.067	-1.931	 H	1	PGW0	0.000	
89	H12A	16.352	-6.917	-0.488	 H	1	PGW0	0.000	
90	 H13	15.052	-8.710	0.627	 H	1	PGW0	0.000	
91	H13A	14.021	-8.860	-0.816	 H	1	PGW0	0.000	
92	HO13	0.535	4.663	-2.318	 H	1	PGW0	0.000	
93	 H14	16.009	-9.457	-2.174	 H	1	PGW0	0.000	
94	H14A	17.039	-9.307	-0.730	 H	1	PGW0	0.000	
95	H14B	15.803	-10.585	-0.812	 H	1	PGW0	0.000	
96	 H15	-11.368	-4.399	-0.578	 H	1	PGW0	0.000	
97	H15A	-12.241	-2.855	-0.724	 H	1	PGW0	0.000	
98	 H16	-12.769	-5.008	1.375	 H	1	PGW0	0.000	
99	H16A	-13.643	-3.464	1.229	 H	1	PGW0	0.000	
100	 H17	-14.384	-4.098	-1.051	 H	1	PGW0	0.000	
101	H17A	-13.510	-5.642	-0.905	 H	1	PGW0	0.000	
102	 H18	-14.912	-6.251	1.048	 H	1	PGW0	0.000	
103	H18A	-15.785	-4.707	0.902	 H	1	PGW0	0.000	
104	 H20	-3.672	2.118	0.583	 H	1	PGW0	0.000	
105	H20A	-2.798	0.574	0.729	 H	1	PGW0	0.000	
106	 H21	-4.200	-0.035	2.682	 H	1	PGW0	0.000	
107	H21A	-5.073	1.509	2.536	 H	1	PGW0	0.000	
108	 H22	-5.814	0.874	0.256	 H	1	PGW0	0.000	
109	H22A	-4.940	-0.670	0.402	 H	1	PGW0	0.000	
110	 H23	-6.342	-1.278	2.355	 H	1	PGW0	0.000	
111	H23A	-7.216	0.266	2.209	 H	1	PGW0	0.000	
112	 H24	-7.957	-0.369	-0.071	 H	1	PGW0	0.000	
113	H24A	-7.083	-1.913	0.075	 H	1	PGW0	0.000	
114	 H25	-8.484	-2.521	2.028	 H	1	PGW0	0.000	
115	H25A	-9.358	-0.977	1.882	 H	1	PGW0	0.000	
116	 H26	-10.099	-1.612	-0.397	 H	1	PGW0	0.000	
117	H26A	-9.225	-3.156	-0.251	 H	1	PGW0	0.000	
118	 H27	-11.501	-2.220	1.556	 H	1	PGW0	0.000	
119	H27A	-10.627	-3.764	1.702	 H	1	PGW0	0.000	
120	 H28	-16.526	-5.342	-1.378	 H	1	PGW0	0.000	
121	H28A	-15.653	-6.886	-1.231	 H	1	PGW0	0.000	
122	 H29	-17.795	-8.129	-1.558	 H	1	PGW0	0.000	
123	H29A	-19.189	-7.792	-0.504	 H	1	PGW0	0.000	
124	H29B	-18.669	-6.585	-1.704	 H	1	PGW0	0.000	
125	 H30	-17.054	-7.494	0.721	 H	1	PGW0	0.000	
126	H30A	-17.928	-5.950	0.575	 H	1	PGW0	0.000	
127	  H9	12.630	1.720	-1.030	 H	1	PGW0	0.000	
128	 H10	14.283	0.366	0.049	 H	1	PGW0	0.000	
@<TRIPOS>BOND
1 1 17 1
2 1 52 1
3 1 53 1
4 1 2 1
5 2 54 1
6 3 17 1
7 3 55 1
8 4 33 1
9 4 29 1
10 5 13 1
11 5 8 1
12 5 56 1
13 5 57 1
14 6 9 1
15 6 7 1
16 7 8 1
17 8 58 1
18 9 12 1
19 9 59 1
20 9 60 1
21 6 10 2
22 8 11 1
23 11 61 1
24 11 62 1
25 12 15 1
26 12 63 1
27 12 64 1
28 14 17 1
29 14 31 1
30 14 65 1
31 14 66 1
32 15 18 1
33 15 67 1
34 15 68 1
35 16 40 2
36 17 69 1
37 18 20 1
38 18 70 1
39 18 71 1
40 19 21 1
41 19 72 1
42 19 73 1
43 20 22 1
44 20 74 1
45 20 75 1
46 21 76 1
47 21 77 1
48 22 24 1
49 22 78 1
50 22 79 1
51 21 23 1
52 23 80 1
53 23 81 1
54 24 26 1
55 24 82 1
56 24 83 1
57 23 25 1
58 25 28 1
59 25 84 1
60 25 85 1
61 26 27 2
62 19 27 1
63 28 86 1
64 28 87 1
65 11 29 1
66 28 30 1
67 30 88 1
68 30 89 1
69 4 31 1
70 30 32 1
71 32 34 1
72 32 90 1
73 32 91 1
74 33 92 1
75 34 93 1
76 34 94 1
77 34 95 1
78 4 35 2
79 36 37 1
80 36 96 1
81 36 97 1
82 37 98 1
83 37 99 1
84 37 38 1
85 38 39 1
86 38 100 1
87 38 101 1
88 39 49 1
89 39 102 1
90 39 103 1
91 13 40 1
92 40 41 1
93 41 42 1
94 41 104 1
95 41 105 1
96 42 43 1
97 42 106 1
98 42 107 1
99 43 44 1
100 43 108 1
101 43 109 1
102 44 45 1
103 44 110 1
104 44 111 1
105 45 46 1
106 45 112 1
107 45 113 1
108 46 47 1
109 46 114 1
110 46 115 1
111 47 48 1
112 47 116 1
113 47 117 1
114 36 48 1
115 48 118 1
116 48 119 1
117 49 120 1
118 49 121 1
119 50 122 1
120 50 123 1
121 50 124 1
122 49 51 1
123 50 51 1
124 51 125 1
125 51 126 1
126 26 127 1
127 27 128 1
@<TRIPOS>SUBSTRUCTURE
1	PGW0	1	GROUP	1 ****	PGW
