# created with PyMOL 2.3.5
@<TRIPOS>MOLECULE
NRZ
51 53 1 0 0
SMALL
USER_CHARGES


@<TRIPOS>ATOM
      1 C1         -6.8650    2.2490    0.7620 C.3       1 NRZ1        0.0000
      2 C10         0.4710   -3.3850    1.2430 C.3       1 NRZ1        0.0000
      3 C11         0.1930   -1.8890    0.9530 C.3       1 NRZ1        0.0000
      4 C12         1.4300   -1.2220    0.4070 C.2       1 NRZ1        0.0000
      5 C13         3.2480    0.2900    0.6630 C.2       1 NRZ1        0.0000
      6 C14         3.2190    0.7100   -0.6600 C.2       1 NRZ1        0.0000
      7 C15         4.2860    1.4130   -1.1840 C.2       1 NRZ1        0.0000
      8 C16         5.3830    1.6990   -0.3920 C.2       1 NRZ1        0.0000
      9 C17         5.4150    1.2820    0.9260 C.2       1 NRZ1        0.0000
     10 C18         4.3510    0.5800    1.4560 C.2       1 NRZ1        0.0000
     11 C19         6.6130    1.5960    1.7860 C.3       1 NRZ1        0.0000
     12 C2         -4.5290    1.8340    0.6170 C.2       1 NRZ1        0.0000
     13 C20         4.2550    1.8680   -2.6200 C.3       1 NRZ1        0.0000
     14 C3         -3.2080    2.1070    0.9440 C.2       1 NRZ1        0.0000
     15 C4         -2.1920    1.3400    0.4080 C.2       1 NRZ1        0.0000
     16 C5         -2.4900    0.3020   -0.4540 C.2       1 NRZ1        0.0000
     17 C6         -3.8050    0.0280   -0.7830 C.2       1 NRZ1        0.0000
     18 C7         -4.8250    0.7880   -0.2440 C.2       1 NRZ1        0.0000
     19 C8         -1.6200   -3.1580    0.0430 C.3       1 NRZ1        0.0000
     20 C9         -0.9560   -3.9880    1.1620 C.3       1 NRZ1        0.0000
     21 N1         -0.8770   -1.8930   -0.0610 N.3       1 NRZ1        0.0000
     22 N2          2.1660   -0.4170    1.1990 N.pl3     1 NRZ1        0.0000
     23 O1         -5.5300    2.5870    1.1430 O.3       1 NRZ1        0.0000
     24 O2         -1.7240   -1.2940   -2.3000 O.2       1 NRZ1        0.0000
     25 O3         -0.0360    0.1520   -1.1560 O.2       1 NRZ1        0.0000
     26 O4          1.7620   -1.4100   -0.7440 O.2       1 NRZ1        0.0000
     27 S1         -1.1920   -0.6750   -1.1370 S.O2      1 NRZ1        0.0000
     28 H2         -6.9680    2.3400   -0.3190 H         1 NRZ1        0.0000
     29 H1         -7.0800    1.2240    1.0630 H         1 NRZ1        0.0000
     30 H3         -7.5650    2.9260    1.2520 H         1 NRZ1        0.0000
     31 H12         1.1210   -3.8170    0.4810 H         1 NRZ1        0.0000
     32 H13         0.8960   -3.5190    2.2380 H         1 NRZ1        0.0000
     33 H14        -0.1410   -1.3830    1.8580 H         1 NRZ1        0.0000
     34 H16         2.3630    0.4860   -1.2790 H         1 NRZ1        0.0000
     35 H17         6.2160    2.2490   -0.8040 H         1 NRZ1        0.0000
     36 H18         4.3770    0.2550    2.4860 H         1 NRZ1        0.0000
     37 H19         6.4630    2.5540    2.2830 H         1 NRZ1        0.0000
     38 H20         6.7370    0.8130    2.5340 H         1 NRZ1        0.0000
     39 H21         7.5050    1.6460    1.1610 H         1 NRZ1        0.0000
     40 H23         3.8080    2.8610   -2.6770 H         1 NRZ1        0.0000
     41 H24         5.2720    1.9050   -3.0110 H         1 NRZ1        0.0000
     42 H22         3.6630    1.1690   -3.2100 H         1 NRZ1        0.0000
     43 H4         -2.9750    2.9190    1.6180 H         1 NRZ1        0.0000
     44 H5         -1.1640    1.5530    0.6620 H         1 NRZ1        0.0000
     45 H6         -4.0350   -0.7870   -1.4530 H         1 NRZ1        0.0000
     46 H7         -5.8520    0.5740   -0.5010 H         1 NRZ1        0.0000
     47 H8         -1.5650   -3.6990   -0.9020 H         1 NRZ1        0.0000
     48 H9         -2.6610   -2.9570    0.2950 H         1 NRZ1        0.0000
     49 H11        -0.9150   -5.0420    0.8870 H         1 NRZ1        0.0000
     50 H10        -1.4850   -3.8550    2.1060 H         1 NRZ1        0.0000
     51 H15         1.9460   -0.3290    2.1390 H         1 NRZ1        0.0000
@<TRIPOS>BOND
     1    2   20 1
     2    2    3 1
     3   19   20 1
     4    3    4 1
     5    3   21 1
     6   19   21 1
     7    4   26 2
     8    4   22 1
     9   21   27 1
    10    5   22 1
    11    5   10 2
    12    5    6 1
    13    9   10 1
    14    6    7 2
    15    9   11 1
    16    8    9 2
    17    7    8 1
    18    7   13 1
    19   24   27 2
    20   16   27 1
    21   25   27 2
    22   17   18 2
    23   16   17 1
    24   12   18 1
    25   15   16 2
    26    1   23 1
    27   12   23 1
    28   12   14 2
    29   14   15 1
    30    1   28 1
    31    1   29 1
    32    1   30 1
    33    2   31 1
    34    2   32 1
    35    3   33 1
    36    6   34 1
    37    8   35 1
    38   10   36 1
    39   11   37 1
    40   11   38 1
    41   11   39 1
    42   13   40 1
    43   13   41 1
    44   13   42 1
    45   14   43 1
    46   15   44 1
    47   17   45 1
    48   18   46 1
    49   19   47 1
    50   19   48 1
    51   20   49 1
    52   20   50 1
    53   22   51 1
@<TRIPOS>SUBSTRUCTURE
     1 NRZ1        1 RESIDUE           4 A     NRZ     0 ROOT
