# created with PyMOL 2.3.5
@<TRIPOS>MOLECULE
OLB
65 64 1                 
SMALL
USER_CHARGES
@<TRIPOS>ATOM
1	  C1	5.788	-0.156	-0.004	C.2	1	OLB0	0.000	
2	  C2	4.388	0.183	-0.445	C.3	1	OLB0	0.000	
3	  C3	3.440	-0.952	-0.052	C.3	1	OLB0	0.000	
4	  C4	2.018	-0.608	-0.500	C.3	1	OLB0	0.000	
5	  C5	1.071	-1.744	-0.107	C.3	1	OLB0	0.000	
6	 O19	6.007	-1.199	0.565	O.co2	1	OLB0	0.000	
7	 O20	6.794	0.698	-0.250	O.3	1	OLB0	0.000	
8	 C21	8.118	0.303	0.198	C.3	1	OLB0	0.000	
9	 C22	9.126	1.394	-0.168	C.3	1	OLB0	0.000	
10	 O23	8.822	2.587	0.559	O.3	1	OLB0	0.000	
11	 C24	10.538	0.925	0.191	C.3	1	OLB0	0.000	
12	 O25	11.489	1.893	-0.256	O.3	1	OLB0	0.000	
13	  C6	-0.351	-1.399	-0.554	C.3	1	OLB0	0.000	
14	  C7	-1.298	-2.535	-0.162	C.3	1	OLB0	0.000	
15	  C8	-2.720	-2.191	-0.609	C.3	1	OLB0	0.000	
16	  C9	-3.653	-3.309	-0.222	C.2	1	OLB0	0.000	
17	 C10	-4.741	-3.048	0.459	C.2	1	OLB0	0.000	
18	 C11	-5.150	-1.619	0.709	C.3	1	OLB0	0.000	
19	  H2	4.068	1.106	0.038	 H	1	OLB0	0.000	
20	 H2A	4.369	0.314	-1.527	 H	1	OLB0	0.000	
21	  H3	3.760	-1.876	-0.536	 H	1	OLB0	0.000	
22	 H3A	3.459	-1.084	1.030	 H	1	OLB0	0.000	
23	  H4	1.699	0.315	-0.016	 H	1	OLB0	0.000	
24	 H4A	2.000	-0.477	-1.582	 H	1	OLB0	0.000	
25	  H5	1.391	-2.667	-0.590	 H	1	OLB0	0.000	
26	 H5A	1.090	-1.875	0.975	 H	1	OLB0	0.000	
27	 H21	8.110	0.163	1.278	 H	1	OLB0	0.000	
28	H21A	8.402	-0.631	-0.287	 H	1	OLB0	0.000	
29	 H22	9.071	1.597	-1.237	 H	1	OLB0	0.000	
30	HO23	8.852	2.480	1.520	 H	1	OLB0	0.000	
31	 H24	10.618	0.808	1.272	 H	1	OLB0	0.000	
32	H24A	10.737	-0.031	-0.294	 H	1	OLB0	0.000	
33	HO25	12.408	1.661	-0.061	 H	1	OLB0	0.000	
34	 H16	-0.670	-0.476	-0.071	 H	1	OLB0	0.000	
35	 H17	-0.370	-1.268	-1.636	 H	1	OLB0	0.000	
36	 H18	-0.979	-3.458	-0.645	 H	1	OLB0	0.000	
37	 H19	-1.279	-2.666	0.920	 H	1	OLB0	0.000	
38	 H20	-3.040	-1.268	-0.125	 H	1	OLB0	0.000	
39	H211	-2.739	-2.060	-1.691	 H	1	OLB0	0.000	
40	H221	-3.424	-4.326	-0.506	 H	1	OLB0	0.000	
41	 H23	-5.346	-3.858	0.841	 H	1	OLB0	0.000	
42	H241	-5.080	-1.403	1.775	 H	1	OLB0	0.000	
43	 H25	-4.488	-0.951	0.158	 H	1	OLB0	0.000	
44	 C12	-6.591	-1.411	0.240	C.3	1	OLB0	0.000	
45	 H26	-7.253	-2.080	0.791	 H	1	OLB0	0.000	
46	 C13	-7.005	0.040	0.494	C.3	1	OLB0	0.000	
47	 H27	-6.661	-1.628	-0.826	 H	1	OLB0	0.000	
48	 C14	-8.447	0.248	0.025	C.3	1	OLB0	0.000	
49	 H28	-6.935	0.256	1.560	 H	1	OLB0	0.000	
50	 H29	-6.344	0.708	-0.057	 H	1	OLB0	0.000	
51	 H30	-8.517	0.031	-1.041	 H	1	OLB0	0.000	
52	 H31	-9.108	-0.421	0.576	 H	1	OLB0	0.000	
53	 C15	-8.861	1.699	0.278	C.3	1	OLB0	0.000	
54	 C16	-10.302	1.907	-0.191	C.3	1	OLB0	0.000	
55	 H32	-8.791	1.915	1.344	 H	1	OLB0	0.000	
56	 H33	-8.199	2.367	-0.272	 H	1	OLB0	0.000	
57	 H34	-10.372	1.690	-1.257	 H	1	OLB0	0.000	
58	 H35	-10.964	1.238	0.360	 H	1	OLB0	0.000	
59	 C17	-10.717	3.358	0.063	C.3	1	OLB0	0.000	
60	 C18	-12.158	3.566	-0.406	C.3	1	OLB0	0.000	
61	 H36	-10.647	3.574	1.129	 H	1	OLB0	0.000	
62	 H37	-10.055	4.026	-0.488	 H	1	OLB0	0.000	
63	 H38	-12.820	2.898	0.145	 H	1	OLB0	0.000	
64	 H39	-12.453	4.600	-0.225	 H	1	OLB0	0.000	
65	 H40	-12.228	3.349	-1.472	 H	1	OLB0	0.000	
@<TRIPOS>BOND
1 1 6 2
2 1 7 1
3 1 2 1
4 2 3 1
5 3 4 1
6 4 5 1
7 5 13 1
8 7 8 1
9 8 9 1
10 9 11 1
11 9 10 1
12 11 12 1
13 13 14 1
14 14 15 1
15 15 16 1
16 16 17 2
17 17 18 1
18 2 19 1
19 2 20 1
20 3 21 1
21 3 22 1
22 4 23 1
23 4 24 1
24 5 25 1
25 5 26 1
26 8 27 1
27 8 28 1
28 9 29 1
29 10 30 1
30 11 31 1
31 11 32 1
32 12 33 1
33 13 34 1
34 13 35 1
35 14 36 1
36 14 37 1
37 15 38 1
38 15 39 1
39 16 40 1
40 17 41 1
41 18 42 1
42 18 43 1
43 18 44 1
44 44 45 1
45 44 46 1
46 44 47 1
47 46 48 1
48 46 49 1
49 46 50 1
50 48 51 1
51 48 52 1
52 48 53 1
53 53 54 1
54 53 55 1
55 53 56 1
56 54 57 1
57 54 58 1
58 54 59 1
59 59 60 1
60 59 61 1
61 59 62 1
62 60 63 1
63 60 64 1
64 60 65 1
@<TRIPOS>SUBSTRUCTURE
1	OLB0	1	GROUP	1 ****	OLB
