@<TRIPOS>MOLECULE
KCA
29 31 1 0 0
SMALL
NO_CHARGES


@<TRIPOS>ATOM
      1 N          89.3760  131.0420  121.8500 N.am      1 KCA518      0.0000
      2 CA         88.1960  131.3700  122.6750 C.3       1 KCA518      0.0000
      3 C          88.1640  132.8920  122.9800 C.2       1 KCA518      0.0000
      4 O          87.3190  133.5610  122.3840 O.2       1 KCA518      0.0000
      5 CB         88.1650  130.4180  123.8950 C.3       1 KCA518      0.0000
      6 CG1        86.8830  130.6750  124.6710 C.3       1 KCA518      0.0000
      7 CG2        88.1330  129.0010  123.3320 C.3       1 KCA518      0.0000
      8 CAB        89.4180  131.4800  120.5880 C.2       1 KCA518      0.0000
      9 CAG        88.8470  134.8590  123.9860 C.3       1 KCA518      0.0000
     10 CAL        89.3790  130.4730  124.8350 C.3       1 KCA518      0.0000
     11 CAM        90.5320  131.1620  119.8930 C.ar      1 KCA518      0.0000
     12 CAP        93.7190  129.6350  119.4810 C.2       1 KCA518      0.0000
     13 CAQ        94.6860  130.5660  119.8620 C.ar      1 KCA518      0.0000
     14 CAR        94.5400  131.9410  119.8520 C.ar      1 KCA518      0.0000
     15 CAS        95.5520  132.7860  120.2410 C.ar      1 KCA518      0.0000
     16 CAT        96.7440  132.2360  120.6680 C.ar      1 KCA518      0.0000
     17 CAV        96.9370  130.8790  120.7050 C.ar      1 KCA518      0.0000
     18 CAW        95.8790  130.1230  120.2890 C.ar      1 KCA518      0.0000
     19 CAX        91.9710  130.8590  118.3330 C.ar      1 KCA518      0.0000
     20 CAY        90.7990  131.4130  118.6040 C.ar      1 KCA518      0.0000
     21 CAZ        90.1540  132.0570  117.6380 C.ar      1 KCA518      0.0000
     22 CBA        90.6870  132.1790  116.3750 C.ar      1 KCA518      0.0000
     23 CBB        91.9240  131.6180  116.1210 C.ar      1 KCA518      0.0000
     24 CBC        92.5670  130.9570  117.1490 C.ar      1 KCA518      0.0000
     25 FAU        97.5630  132.8980  120.9890 F         1 KCA518      0.0000
     26 NAN        91.5330  130.4650  120.4180 N.ar      1 KCA518      0.0000
     27 NAO        92.4280  130.2980  119.4450 N.ar      1 KCA518      0.0000
     28 OAA        88.4400  132.0500  120.0950 O.2       1 KCA518      0.0000
     29 OAF        89.0750  133.4460  123.8260 O.3       1 KCA518      0.0000
@<TRIPOS>BOND
     1    1    2 1
     2    1    8 am
     3    2    3 1
     4    2    5 1
     5    3    4 2
     6    3   29 1
     7    5    6 1
     8    5    7 1
     9    5   10 1
    10    8   11 1
    11    8   28 2
    12    9   29 1
    13   11   20 ar
    14   11   26 ar
    15   12   13 1
    16   12   27 1
    17   13   14 ar
    18   13   18 ar
    19   14   15 ar
    20   15   16 ar
    21   16   17 ar
    22   16   25 1
    23   17   18 ar
    24   19   20 ar
    25   19   24 ar
    26   19   27 ar
    27   20   21 ar
    28   21   22 ar
    29   22   23 ar
    30   23   24 ar
    31   26   27 ar
@<TRIPOS>SUBSTRUCTURE
     1 KCA518      2 RESIDUE           4 R     KCA     0 ROOT
