# created with PyMOL 2.3.5
@<TRIPOS>MOLECULE
MES
25 25 1                 
SMALL
USER_CHARGES
@<TRIPOS>ATOM
1	  O1	4.115	0.326	-0.373	O.3	1	MES0	0.000	
2	  C2	3.764	-0.923	0.221	C.3	1	MES0	0.000	
3	  C3	2.331	-1.294	-0.164	C.3	1	MES0	0.000	
4	  N4	1.410	-0.267	0.343	N.4	1	MES0	0.000	
5	  C5	1.812	1.045	-0.186	C.3	1	MES0	0.000	
6	  C6	3.266	1.321	0.199	C.3	1	MES0	0.000	
7	  C7	0.042	-0.575	-0.094	C.3	1	MES0	0.000	
8	  C8	-0.932	0.425	0.533	C.3	1	MES0	0.000	
9	   S	-2.621	0.045	-0.007	S.3	1	MES0	0.000	
10	 O1S	-2.969	-1.303	0.415	O.2	1	MES0	0.000	
11	 O2S	-2.695	0.138	-1.457	O.2	1	MES0	0.000	
12	 O3S	-3.543	0.998	0.591	 O	1	MES0	0.000	
13	 H21	3.839	-0.842	1.306	 H	1	MES0	0.000	
14	 H22	4.446	-1.697	-0.131	 H	1	MES0	0.000	
15	 H31	2.075	-2.260	0.273	 H	1	MES0	0.000	
16	 H32	2.250	-1.352	-1.249	 H	1	MES0	0.000	
17	 HN4	1.446	-0.249	1.351	 H	1	MES0	0.000	
18	 H51	1.717	1.042	-1.272	 H	1	MES0	0.000	
19	 H52	1.171	1.820	0.233	 H	1	MES0	0.000	
20	 H61	3.363	1.300	1.284	 H	1	MES0	0.000	
21	 H62	3.559	2.304	-0.172	 H	1	MES0	0.000	
22	 H71	-0.222	-1.584	0.221	 H	1	MES0	0.000	
23	 H72	-0.017	-0.506	-1.181	 H	1	MES0	0.000	
24	 H81	-0.668	1.435	0.218	 H	1	MES0	0.000	
25	 H82	-0.873	0.357	1.619	 H	1	MES0	0.000	
@<TRIPOS>BOND
1 1 2 1
2 1 6 1
3 2 3 1
4 2 13 1
5 2 14 1
6 3 4 1
7 3 15 1
8 3 16 1
9 4 5 1
10 4 7 1
11 4 17 1
12 5 6 1
13 5 18 1
14 5 19 1
15 6 20 1
16 6 21 1
17 7 8 1
18 7 22 1
19 7 23 1
20 8 9 1
21 8 24 1
22 8 25 1
23 9 10 2
24 9 11 2
25 9 12 1
@<TRIPOS>SUBSTRUCTURE
1	MES0	1	GROUP	1 ****	MES
