# created with PyMOL 2.3.5
@<TRIPOS>MOLECULE
DMS
10 9 1                  
SMALL
USER_CHARGES
@<TRIPOS>ATOM
1	   S	0.154	-0.371	0.000	S.O	1	DMS0	0.000	
2	   O	1.390	0.331	0.001	O.2	1	DMS0	0.000	
3	  C1	-0.864	0.196	1.389	C.3	1	DMS0	0.000	
4	  C2	-0.862	0.196	-1.390	C.3	1	DMS0	0.000	
5	 H11	-0.381	-0.073	2.328	 H	1	DMS0	0.000	
6	 H12	-0.978	1.279	1.337	 H	1	DMS0	0.000	
7	 H13	-1.845	-0.275	1.336	 H	1	DMS0	0.000	
8	 H21	-0.378	-0.072	-2.328	 H	1	DMS0	0.000	
9	 H22	-1.843	-0.275	-1.339	 H	1	DMS0	0.000	
10	 H23	-0.977	1.279	-1.338	 H	1	DMS0	0.000	
@<TRIPOS>BOND
1 1 2 2
2 1 3 1
3 1 4 1
4 3 5 1
5 3 6 1
6 3 7 1
7 4 8 1
8 4 9 1
9 4 10 1
@<TRIPOS>SUBSTRUCTURE
1	DMS0	1	GROUP	1 ****	DMS
