# created with PyMOL 2.3.5
@<TRIPOS>MOLECULE
DI8
24 25 1                 
SMALL
USER_CHARGES
@<TRIPOS>ATOM
1	   C	2.793	0.195	-0.029	C.2	1	DI80	0.000	
2	   N	0.968	-1.390	0.259	N.3	1	DI80	0.000	
3	   O	3.328	-0.348	0.909	O.co2	1	DI80	0.000	
4	  C1	0.455	0.990	0.212	C.3	1	DI80	0.000	
5	  C2	-0.991	0.579	0.105	C.2	1	DI80	0.000	
6	  C3	-1.967	1.556	0.226	C.2	1	DI80	0.000	
7	  C4	-3.303	1.222	0.139	C.2	1	DI80	0.000	
8	  C5	-3.671	-0.095	-0.069	C.2	1	DI80	0.000	
9	  C6	-2.700	-1.068	-0.192	C.2	1	DI80	0.000	
10	  C7	-1.356	-0.733	-0.106	C.2	1	DI80	0.000	
11	  C8	-0.333	-1.828	-0.257	C.3	1	DI80	0.000	
12	  CA	1.354	-0.109	-0.355	C.3	1	DI80	0.000	
13	 OXT	3.480	1.073	-0.776	O.3	1	DI80	0.000	
14	  HN	1.674	-2.093	0.102	 H	1	DI80	0.000	
15	 HXT	4.400	1.236	-0.528	 H	1	DI80	0.000	
16	  H1	0.612	1.911	-0.350	 H	1	DI80	0.000	
17	 H1A	0.707	1.158	1.259	 H	1	DI80	0.000	
18	  H3	-1.680	2.585	0.389	 H	1	DI80	0.000	
19	  H4	-4.060	1.987	0.234	 H	1	DI80	0.000	
20	  H5	-4.715	-0.361	-0.136	 H	1	DI80	0.000	
21	  H6	-2.987	-2.096	-0.354	 H	1	DI80	0.000	
22	  H8	-0.234	-2.086	-1.311	 H	1	DI80	0.000	
23	 H8A	-0.663	-2.707	0.298	 H	1	DI80	0.000	
24	  HA	1.228	-0.168	-1.436	 H	1	DI80	0.000	
@<TRIPOS>BOND
1 1 3 2
2 1 13 1
3 1 12 1
4 2 12 1
5 2 11 1
6 2 14 1
7 13 15 1
8 4 12 1
9 4 5 1
10 4 16 1
11 4 17 1
12 5 10 2
13 5 6 1
14 6 7 2
15 6 18 1
16 7 8 1
17 7 19 1
18 8 9 2
19 8 20 1
20 9 10 1
21 9 21 1
22 10 11 1
23 11 22 1
24 11 23 1
25 12 24 1
@<TRIPOS>SUBSTRUCTURE
1	DI80	1	GROUP	1 ****	DI8
