# created with PyMOL 2.3.5
@<TRIPOS>MOLECULE
8JN
56 60 1 0 0
SMALL
USER_CHARGES


@<TRIPOS>ATOM
      1 C10        -0.0560   -3.1140   -0.1540 C.2       1 8JN1        0.0000
      2 C13         0.4380   -0.4120   -0.2450 C.2       1 8JN1        0.0000
      3 C14         0.7390    0.9400   -0.3510 C.2       1 8JN1        0.0000
      4 C16        -1.4220    0.6820   -0.0870 C.2       1 8JN1        0.0000
      5 C18        -2.8920    0.9710    0.0700 C.3       1 8JN1        0.0000
      6 C21        -4.6680   -0.3670    1.1590 C.3       1 8JN1        0.0000
      7 C22        -3.8000   -0.2780   -0.1310 C.3       1 8JN1        0.0000
      8 C23        -4.8410    0.1390   -1.2120 C.3       1 8JN1        0.0000
      9 C24        -4.9550    1.6650   -0.9450 C.3       1 8JN1        0.0000
     10 C25        -3.4320    2.0380   -0.9280 C.3       1 8JN1        0.0000
     11 C26        -5.5360    1.8760    0.4560 C.3       1 8JN1        0.0000
     12 C27         2.0840    1.3330   -0.5290 C.2       1 8JN1        0.0000
     13 C01         7.2050    1.6380    1.7680 C.3       1 8JN1        0.0000
     14 C02         6.5530    1.4230    0.4010 C.3       1 8JN1        0.0000
     15 C03         5.0940    1.0040    0.5920 C.3       1 8JN1        0.0000
     16 C04         4.4410    0.7890   -0.7750 C.3       1 8JN1        0.0000
     17 N05         3.0440    0.3880   -0.5910 N.pl3     1 8JN1        0.0000
     18 C06         2.7390   -0.9170   -0.4870 C.2       1 8JN1        0.0000
     19 O07         3.6310   -1.7410   -0.5480 O.2       1 8JN1        0.0000
     20 N08         1.4700   -1.3350   -0.3170 N.pl3     1 8JN1        0.0000
     21 C09         1.1940   -2.6970   -0.2120 C.2       1 8JN1        0.0000
     22 C11        -0.3580   -4.5900   -0.1500 C.3       1 8JN1        0.0000
     23 O12        -1.3400   -4.8730    0.8490 O.3       1 8JN1        0.0000
     24 N15        -0.4610    1.6130   -0.2470 N.pl3     1 8JN1        0.0000
     25 N17        -0.8850   -0.5110   -0.0910 N.2       1 8JN1        0.0000
     26 C19        -3.2750    1.5380    1.4690 C.3       1 8JN1        0.0000
     27 C20        -4.7730    1.1310    1.5540 C.3       1 8JN1        0.0000
     28 O28         2.3730    2.5130   -0.6250 O.2       1 8JN1        0.0000
     29 H1         -0.8620   -2.3970   -0.1050 H         1 8JN1        0.0000
     30 H2         -5.6510   -0.7850    0.9420 H         1 8JN1        0.0000
     31 H3         -4.1620   -0.9430    1.9340 H         1 8JN1        0.0000
     32 H4         -3.2490   -1.1910   -0.3570 H         1 8JN1        0.0000
     33 H5         -4.4640   -0.0560   -2.2160 H         1 8JN1        0.0000
     34 H6         -5.7960   -0.3600   -1.0500 H         1 8JN1        0.0000
     35 H7         -5.5190    2.1890   -1.7170 H         1 8JN1        0.0000
     36 H8         -3.2780    3.0420   -0.5320 H         1 8JN1        0.0000
     37 H9         -2.9920    1.9370   -1.9190 H         1 8JN1        0.0000
     38 H10        -5.5220    2.9420    0.6820 H         1 8JN1        0.0000
     39 H11        -6.5720    1.5360    0.4580 H         1 8JN1        0.0000
     40 H12         8.2450    1.9370    1.6310 H         1 8JN1        0.0000
     41 H13         6.6700    2.4200    2.3070 H         1 8JN1        0.0000
     42 H14         7.1660    0.7100    2.3390 H         1 8JN1        0.0000
     43 H15         6.5920    2.3510   -0.1700 H         1 8JN1        0.0000
     44 H16         7.0880    0.6420   -0.1390 H         1 8JN1        0.0000
     45 H17         5.0550    0.0760    1.1640 H         1 8JN1        0.0000
     46 H18         4.5590    1.7860    1.1320 H         1 8JN1        0.0000
     47 H19         4.4800    1.7170   -1.3460 H         1 8JN1        0.0000
     48 H20         4.9760    0.0080   -1.3140 H         1 8JN1        0.0000
     49 H21         2.0040   -3.4110   -0.1790 H         1 8JN1        0.0000
     50 H22        -0.7400   -4.8860   -1.1280 H         1 8JN1        0.0000
     51 H23         0.5530   -5.1470    0.0680 H         1 8JN1        0.0000
     52 H24        -1.5830   -5.8070    0.9080 H         1 8JN1        0.0000
     53 H25        -0.5890    2.5740   -0.2830 H         1 8JN1        0.0000
     54 H27        -2.7050    1.0510    2.2600 H         1 8JN1        0.0000
     55 H28        -3.1450    2.6200    1.5030 H         1 8JN1        0.0000
     56 H29        -5.2010    1.2920    2.5440 H         1 8JN1        0.0000
@<TRIPOS>BOND
     1   22   23 1
     2    1   22 1
     3    1   21 2
     4   13   14 1
     5   20   21 1
     6    9   10 1
     7    5   10 1
     8   14   15 1
     9    9   11 1
    10    8    9 1
    11   11   27 1
    12    5   26 1
    13   26   27 1
    14    2   20 1
    15   18   20 1
    16    2   25 1
    17    4   25 2
    18   18   19 2
    19    2    3 2
    20   17   18 1
    21    4    5 1
    22    5    7 1
    23    4   24 1
    24   15   16 1
    25    6   27 1
    26    3   24 1
    27    3   12 1
    28   12   17 1
    29   16   17 1
    30    7    8 1
    31   12   28 2
    32    6    7 1
    33    1   29 1
    34    6   30 1
    35    6   31 1
    36    7   32 1
    37    8   33 1
    38    8   34 1
    39    9   35 1
    40   10   36 1
    41   10   37 1
    42   11   38 1
    43   11   39 1
    44   13   40 1
    45   13   41 1
    46   13   42 1
    47   14   43 1
    48   14   44 1
    49   15   45 1
    50   15   46 1
    51   16   47 1
    52   16   48 1
    53   21   49 1
    54   22   50 1
    55   22   51 1
    56   23   52 1
    57   24   53 1
    58   26   54 1
    59   26   55 1
    60   27   56 1
@<TRIPOS>SUBSTRUCTURE
     1 8JN1        1 RESIDUE           4 A     8JN     0 ROOT
