# created with PyMOL 2.3.5
@<TRIPOS>MOLECULE
H8J
54 57 1 0 0
SMALL
USER_CHARGES


@<TRIPOS>ATOM
      1 H01        -0.1320    2.6980    1.2430 H         1 H8J1        0.0000
      2 CAA         5.8060    1.2140    0.0570 C.3       1 H8J1        0.0000
      3 CAB        -0.6220    4.0170   -0.3020 C.3       1 H8J1        0.0000
      4 CAC        -6.6410   -0.9640    0.2930 C.3       1 H8J1        0.0000
      5 CAF         0.5070   -0.0280    0.1450 C.2       1 H8J1        0.0000
      6 CAG        -2.6540   -2.9550   -0.8070 C.2       1 H8J1        0.0000
      7 CAH        -1.5560   -2.1050   -0.6890 C.2       1 H8J1        0.0000
      8 CAI        -3.9640   -2.5850   -0.5260 C.2       1 H8J1        0.0000
      9 CAJ        -4.8270    0.7650    0.6190 C.2       1 H8J1        0.0000
     10 CAK         5.8770   -0.2840    0.3610 C.3       1 H8J1        0.0000
     11 CAL         4.8650   -2.5120   -0.1410 C.3       1 H8J1        0.0000
     12 CAM        -2.4940    1.9540    0.7250 C.3       1 H8J1        0.0000
     13 CAN         1.0930    2.3080   -0.3730 C.3       1 H8J1        0.0000
     14 CAP         2.8650    0.5700   -0.2390 C.2       1 H8J1        0.0000
     15 CAQ        -0.7590    0.2780   -0.0770 C.2       1 H8J1        0.0000
     16 CAR        -3.5080    0.8650    0.4940 C.2       1 H8J1        0.0000
     17 CAS        -1.7390   -0.8080   -0.2690 C.2       1 H8J1        0.0000
     18 CAT        -4.1860   -1.2780   -0.0940 C.2       1 H8J1        0.0000
     19 CAU        -3.0700   -0.4440    0.0250 C.2       1 H8J1        0.0000
     20 CAV         1.5550    1.0340    0.3440 C.3       1 H8J1        0.0000
     21 CAW         4.7230   -1.0020   -0.3410 C.3       1 H8J1        0.0000
     22 CAX        -1.2600    1.6960   -0.1510 C.3       1 H8J1        0.0000
     23 NAO         3.4500   -0.5510    0.2260 N.pl3     1 H8J1        0.0000
     24 NAY        -0.2280    2.6790    0.1570 N.3       1 H8J1        0.0000
     25 NAZ        -5.2490   -0.5090    0.2710 N.pl3     1 H8J1        0.0000
     26 OAD         3.3920    1.2060   -1.1270 O.2       1 H8J1        0.0000
     27 OAE         4.9500   -2.8010    1.2560 O.3       1 H8J1        0.0000
     28 H1          6.6280    1.7260    0.5580 H         1 H8J1        0.0000
     29 H2          5.8830    1.3700   -1.0190 H         1 H8J1        0.0000
     30 H3          4.8580    1.6130    0.4160 H         1 H8J1        0.0000
     31 H4         -1.5470    4.3140    0.1930 H         1 H8J1        0.0000
     32 H5          0.1650    4.7310   -0.0600 H         1 H8J1        0.0000
     33 H6         -0.7770    4.0000   -1.3810 H         1 H8J1        0.0000
     34 H7         -7.1010   -0.7730   -0.6760 H         1 H8J1        0.0000
     35 H8         -6.6710   -2.0330    0.5060 H         1 H8J1        0.0000
     36 H9         -7.1880   -0.4240    1.0670 H         1 H8J1        0.0000
     37 H10         0.7970   -1.0680    0.1910 H         1 H8J1        0.0000
     38 H11        -2.4760   -3.9670   -1.1380 H         1 H8J1        0.0000
     39 H12        -0.5650   -2.4640   -0.9270 H         1 H8J1        0.0000
     40 H13        -4.7800   -3.2840   -0.6390 H         1 H8J1        0.0000
     41 H14        -5.4780    1.5630    0.9450 H         1 H8J1        0.0000
     42 H15         6.8260   -0.6830    0.0030 H         1 H8J1        0.0000
     43 H16         5.8010   -0.4400    1.4370 H         1 H8J1        0.0000
     44 H17         3.9970   -3.0180   -0.5640 H         1 H8J1        0.0000
     45 H18         5.7690   -2.8620   -0.6400 H         1 H8J1        0.0000
     46 H19        -2.9300    2.9180    0.4640 H         1 H8J1        0.0000
     47 H20        -2.2000    1.9600    1.7750 H         1 H8J1        0.0000
     48 H21         1.8010    3.1140   -0.1810 H         1 H8J1        0.0000
     49 H22         1.0290    2.1230   -1.4450 H         1 H8J1        0.0000
     50 H23         1.6770    1.2350    1.4080 H         1 H8J1        0.0000
     51 H24         4.7480   -0.7730   -1.4070 H         1 H8J1        0.0000
     52 H25        -1.5590    1.8770   -1.1830 H         1 H8J1        0.0000
     53 H26         3.0280   -1.0600    0.9360 H         1 H8J1        0.0000
     54 H28         5.0410   -3.7420    1.4580 H         1 H8J1        0.0000
@<TRIPOS>BOND
     1    2   10 1
     2    2   28 1
     3    2   29 1
     4    2   30 1
     5    3   24 1
     6    3   31 1
     7    3   32 1
     8    3   33 1
     9    4   25 1
    10    4   34 1
    11    4   35 1
    12    4   36 1
    13    5   20 1
    14    5   37 1
    15    6    7 1
    16    6   38 1
    17    7   39 1
    18    6    8 2
    19    8   40 1
    20    9   16 2
    21    9   25 1
    22    9   41 1
    23   10   21 1
    24   10   42 1
    25   10   43 1
    26   11   27 1
    27   11   44 1
    28   11   45 1
    29   12   16 1
    30   12   22 1
    31   12   46 1
    32   12   47 1
    33   13   20 1
    34   13   48 1
    35   13   49 1
    36   14   23 1
    37   14   26 2
    38    5   15 2
    39   16   19 1
    40    7   17 2
    41   15   17 1
    42    8   18 1
    43   18   19 2
    44   17   19 1
    45   14   20 1
    46   20   50 1
    47   11   21 1
    48   21   51 1
    49   15   22 1
    50   22   52 1
    51   21   23 1
    52   23   53 1
    53    1   24 1
    54   13   24 1
    55   22   24 1
    56   18   25 1
    57   27   54 1
@<TRIPOS>SUBSTRUCTURE
     1 H8J1        1 RESIDUE           4 A     H8J     0 ROOT
