@<TRIPOS>MOLECULE
UN3
41 44 1 0 0
SMALL
NO_CHARGES


@<TRIPOS>ATOM
      1 C1         96.4160  106.1120   94.5480 C.3       1 UN3900      0.0000
      2 N1         95.4740  106.7120   93.5810 N.4       1 UN3900      0.0000
      3 O1        100.3020  111.9520   99.4520 O.3       1 UN3900      0.0000
      4 C2         97.6470  105.4800   93.9000 C.3       1 UN3900      0.0000
      5 N2         98.8610  102.8910   96.2480 N.ar      1 UN3900      0.0000
      6 O2        102.4370  110.1880   99.4580 O.3       1 UN3900      0.0000
      7 C3         98.2370  104.6250   95.0000 C.ar      1 UN3900      0.0000
      8 C4         98.3050  103.2670   95.0410 C.ar      1 UN3900      0.0000
      9 C5         99.1590  104.0250   96.9790 C.ar      1 UN3900      0.0000
     10 C6         99.7300  104.1640   98.2530 C.ar      1 UN3900      0.0000
     11 C7         99.9050  105.4470   98.7470 C.ar      1 UN3900      0.0000
     12 C8         99.5190  106.5840   97.9830 C.ar      1 UN3900      0.0000
     13 C9         99.7100  107.9400   98.4800 C.ar      1 UN3900      0.0000
     14 C10        98.6210  108.8260   98.5570 C.ar      1 UN3900      0.0000
     15 C11        98.8080  110.1620   98.9050 C.ar      1 UN3900      0.0000
     16 C12       100.0900  110.6180   99.1820 C.ar      1 UN3900      0.0000
     17 C13       101.6520  112.4580   99.2170 C.3       1 UN3900      0.0000
     18 C14       102.6060  111.5390   99.9930 C.3       1 UN3900      0.0000
     19 C15       101.1720  109.7320   99.1610 C.ar      1 UN3900      0.0000
     20 C16       100.9880  108.3990   98.8200 C.ar      1 UN3900      0.0000
     21 C17        98.9640  106.4080   96.7200 C.ar      1 UN3900      0.0000
     22 C18        98.7760  105.1170   96.2110 C.ar      1 UN3900      0.0000
     23 H1         94.6750  107.0080   94.1700 H         1 UN3900      0.0000
     24 H2         95.0790  105.9960   92.9810 H         1 UN3900      0.0000
     25 H3         96.7320  106.8600   95.2790 H         1 UN3900      0.0000
     26 H4         95.8900  105.3310   95.1060 H         1 UN3900      0.0000
     27 H5         97.3660  104.8610   93.0500 H         1 UN3900      0.0000
     28 H6         98.3540  106.2500   93.5900 H         1 UN3900      0.0000
     29 H7         98.0020  102.5410   94.3300 H         1 UN3900      0.0000
     30 H8         99.0130  101.9180   96.5700 H         1 UN3900      0.0000
     31 H9        100.0150  103.3130   98.8170 H         1 UN3900      0.0000
     32 H10       100.3280  105.5900   99.7080 H         1 UN3900      0.0000
     33 H11        97.6470  108.4730   98.3360 H         1 UN3900      0.0000
     34 H12        97.9870  110.8310   98.9470 H         1 UN3900      0.0000
     35 H13       101.8910  112.4190   98.1520 H         1 UN3900      0.0000
     36 H14       101.7360  113.4800   99.5810 H         1 UN3900      0.0000
     37 H15       103.6380  111.8640   99.8510 H         1 UN3900      0.0000
     38 H16       102.3470  111.5570  101.0510 H         1 UN3900      0.0000
     39 H17       101.8150  107.7390   98.7920 H         1 UN3900      0.0000
     40 H18        98.6930  107.2520   96.1440 H         1 UN3900      0.0000
     41 H19        95.8280  107.5120   93.0920 H         1 UN3900      0.0000
@<TRIPOS>BOND
     1    1    2 1
     2    1    4 1
     3    1   25 1
     4    1   26 1
     5    2   23 1
     6    2   24 1
     7    2   41 1
     8    3   16 1
     9    3   17 1
    10    4    7 1
    11    4   27 1
    12    4   28 1
    13    5    8 ar
    14    5    9 ar
    15    5   30 1
    16    6   18 1
    17    6   19 1
    18    7    8 ar
    19    7   22 ar
    20    8   29 1
    21    9   10 ar
    22    9   22 ar
    23   10   11 ar
    24   10   31 1
    25   11   12 ar
    26   11   32 1
    27   12   13 1
    28   12   21 ar
    29   13   14 ar
    30   13   20 ar
    31   14   15 ar
    32   14   33 1
    33   15   16 ar
    34   15   34 1
    35   16   19 ar
    36   17   18 1
    37   17   35 1
    38   17   36 1
    39   18   37 1
    40   18   38 1
    41   19   20 ar
    42   20   39 1
    43   21   22 ar
    44   21   40 1
@<TRIPOS>SUBSTRUCTURE
     1 UN3900      1 RESIDUE           4 L     UN3     0 ROOT
