# created with PyMOL 2.3.5
@<TRIPOS>MOLECULE
PO4
5 4 1                   
SMALL
USER_CHARGES
@<TRIPOS>ATOM
1	   P	0.000	0.000	0.000	P.3	1	PO40	0.000	
2	  O1	0.000	-1.288	-0.911	O.co2	1	PO40	0.000	
3	  O2	0.000	1.288	-0.911	O.co2	1	PO40	0.000	
4	  O3	-1.288	0.000	0.911	O.co2	1	PO40	0.000	
5	  O4	1.288	0.000	0.911	O.co2	1	PO40	0.000	
@<TRIPOS>BOND
1 1 2 2
2 1 3 1
3 1 4 1
4 1 5 1
@<TRIPOS>SUBSTRUCTURE
1	PO40	1	GROUP	1 ****	PO4
