@<TRIPOS>MOLECULE
P0G
27 29 1 0 0
SMALL
NO_CHARGES


@<TRIPOS>ATOM
      1 CAA        23.9740    7.0940  -14.7090 C.3       1 P0G446      0.0000
      2 CAB        22.2670    5.6660  -12.3670 C.3       1 P0G446      0.0000
      3 CAC        20.4550    7.3650  -12.2040 C.3       1 P0G446      0.0000
      4 OAD        15.4730    2.1740  -10.5770 O.2       1 P0G446      0.0000
      5 OAE        17.8500    1.5120   -6.6000 O.3       1 P0G446      0.0000
      6 OAF        20.2190    7.0960   -8.0220 O.3       1 P0G446      0.0000
      7 CAG        21.9300   10.0400  -15.9090 C.ar      1 P0G446      0.0000
      8 CAH        21.4030   10.5230  -14.7180 C.ar      1 P0G446      0.0000
      9 CAI        22.7620    8.9280  -15.8960 C.ar      1 P0G446      0.0000
     10 CAJ        21.7130    9.8930  -13.5190 C.ar      1 P0G446      0.0000
     11 CAK        19.2370    3.4470   -6.4570 C.ar      1 P0G446      0.0000
     12 CAL        19.7840    4.5780   -7.0530 C.ar      1 P0G446      0.0000
     13 CAM        16.9780    3.9920  -10.8130 C.3       1 P0G446      0.0000
     14 CAN        21.4120    5.7570   -9.6190 C.3       1 P0G446      0.0000
     15 CAO        22.8700    8.1030  -12.1880 C.3       1 P0G446      0.0000
     16 NAP        21.9400    6.9080  -10.3300 N.4       1 P0G446      0.0000
     17 NAQ        17.2690    2.1530   -9.2380 N.am      1 P0G446      0.0000
     18 OAR        18.3010    4.3030  -10.3830 O.3       1 P0G446      0.0000
     19 CAS        16.5110    2.6910  -10.1950 C.2       1 P0G446      0.0000
     20 CAT        23.0690    8.2970  -14.6960 C.ar      1 P0G446      0.0000
     21 CAU        18.3860    2.6210   -7.1820 C.ar      1 P0G446      0.0000
     22 CAV        22.5390    8.7730  -13.5060 C.ar      1 P0G446      0.0000
     23 CAW        19.4830    4.8770   -8.3760 C.ar      1 P0G446      0.0000
     24 CAX        18.0860    2.9320   -8.4960 C.ar      1 P0G446      0.0000
     25 CAY        18.6280    4.0530   -9.0820 C.ar      1 P0G446      0.0000
     26 CAZ        20.0500    6.0820   -9.0180 C.3       1 P0G446      0.0000
     27 CBA        21.8760    7.0150  -11.7780 C.3       1 P0G446      0.0000
@<TRIPOS>BOND
     1    1   20 1
     2    2   27 1
     3    3   27 1
     4    4   19 2
     5    5   21 1
     6    6   26 1
     7    7    8 ar
     8    7    9 ar
     9    8   10 ar
    10    9   20 ar
    11   10   22 ar
    12   11   12 ar
    13   11   21 ar
    14   12   23 ar
    15   13   18 1
    16   13   19 1
    17   14   16 1
    18   14   26 1
    19   15   22 1
    20   15   27 1
    21   16   27 1
    22   17   19 am
    23   17   24 1
    24   18   25 1
    25   20   22 ar
    26   21   24 ar
    27   23   25 ar
    28   23   26 1
    29   24   25 ar
@<TRIPOS>SUBSTRUCTURE
     1 P0G446      1 RESIDUE           4 R     P0G     0 ROOT
