@<TRIPOS>MOLECULE
P0G
27 29 1 0 0
SMALL
NO_CHARGES


@<TRIPOS>ATOM
      1 CAA       -30.5770  443.0910   11.9010 C.3       1 P0G446      0.0000
      2 CAB       -28.2260  440.5380   11.4040 C.3       1 P0G446      0.0000
      3 CAC       -28.6090  441.0530    8.9930 C.3       1 P0G446      0.0000
      4 OAD       -22.0390  439.7410    6.2940 O.2       1 P0G446      0.0000
      5 OAE       -21.9270  435.7110    8.6730 O.3       1 P0G446      0.0000
      6 OAF       -28.2040  436.2040    9.0560 O.3       1 P0G446      0.0000
      7 CAG       -32.3400  443.8910    8.6700 C.ar      1 P0G446      0.0000
      8 CAH       -32.3360  442.6640    8.0170 C.ar      1 P0G446      0.0000
      9 CAI       -31.7690  444.0190    9.9300 C.ar      1 P0G446      0.0000
     10 CAJ       -31.7660  441.5620    8.6290 C.ar      1 P0G446      0.0000
     11 CAK       -24.2130  435.2450    9.2010 C.ar      1 P0G446      0.0000
     12 CAL       -25.5430  435.6530    9.2380 C.ar      1 P0G446      0.0000
     13 CAM       -24.3720  439.5140    6.7370 C.3       1 P0G446      0.0000
     14 CAN       -27.5460  438.3030    9.9750 C.3       1 P0G446      0.0000
     15 CAO       -30.5650  440.4590   10.5210 C.3       1 P0G446      0.0000
     16 NAP       -28.8910  438.8330    9.8890 N.4       1 P0G446      0.0000
     17 NAQ       -22.6270  438.1930    7.7940 N.am      1 P0G446      0.0000
     18 OAR       -25.1600  439.0290    7.8290 O.3       1 P0G446      0.0000
     19 CAS       -22.9090  439.1580    6.9240 C.2       1 P0G446      0.0000
     20 CAT       -31.1900  442.9150   10.5370 C.ar      1 P0G446      0.0000
     21 CAU       -23.2320  436.1010    8.7130 C.ar      1 P0G446      0.0000
     22 CAV       -31.1760  441.6880    9.8840 C.ar      1 P0G446      0.0000
     23 CAW       -25.9020  436.9190    8.7900 C.ar      1 P0G446      0.0000
     24 CAX       -23.5840  437.3560    8.2590 C.ar      1 P0G446      0.0000
     25 CAY       -24.9070  437.7660    8.2930 C.ar      1 P0G446      0.0000
     26 CAZ       -27.3330  437.3250    8.8330 C.3       1 P0G446      0.0000
     27 CBA       -29.0900  440.2360   10.1860 C.3       1 P0G446      0.0000
@<TRIPOS>BOND
     1    1   20 1
     2    2   27 1
     3    3   27 1
     4    4   19 2
     5    5   21 1
     6    6   26 1
     7    7    8 ar
     8    7    9 ar
     9    8   10 ar
    10    9   20 ar
    11   10   22 ar
    12   11   12 ar
    13   11   21 ar
    14   12   23 ar
    15   13   18 1
    16   13   19 1
    17   14   16 1
    18   14   26 1
    19   15   22 1
    20   15   27 1
    21   16   27 1
    22   17   19 am
    23   17   24 1
    24   18   25 1
    25   20   22 ar
    26   21   24 ar
    27   23   25 ar
    28   23   26 1
    29   24   25 ar
@<TRIPOS>SUBSTRUCTURE
     1 P0G446      1 RESIDUE           4 B     P0G     0 ROOT
