@<TRIPOS>MOLECULE
P0G
27 29 1 0 0
SMALL
NO_CHARGES


@<TRIPOS>ATOM
      1 CAA       106.8440  161.6480  121.3190 C.3       1 P0G446      0.0000
      2 CAB       109.7770  160.5080  123.2240 C.3       1 P0G446      0.0000
      3 CAC       111.4800  160.5880  121.4560 C.3       1 P0G446      0.0000
      4 OAD       116.4380  163.9530  125.7510 O.2       1 P0G446      0.0000
      5 OAE       115.8730  160.3070  129.1620 O.3       1 P0G446      0.0000
      6 OAF       112.7220  157.2260  124.8560 O.3       1 P0G446      0.0000
      7 CAG       107.8160  161.1100  117.9640 C.ar      1 P0G446      0.0000
      8 CAH       108.7790  160.1310  117.8670 C.ar      1 P0G446      0.0000
      9 CAI       107.3140  161.4560  119.2120 C.ar      1 P0G446      0.0000
     10 CAJ       109.2390  159.4850  119.0030 C.ar      1 P0G446      0.0000
     11 CAK       114.6270  158.7220  128.0070 C.ar      1 P0G446      0.0000
     12 CAL       113.9970  158.2420  126.8380 C.ar      1 P0G446      0.0000
     13 CAM       114.8410  162.4190  124.7470 C.3       1 P0G446      0.0000
     14 CAN       112.2110  159.3330  123.9910 C.3       1 P0G446      0.0000
     15 CAO       109.4920  158.9140  121.3380 C.3       1 P0G446      0.0000
     16 NAP       111.4060  158.6530  122.9770 N.4       1 P0G446      0.0000
     17 NAQ       116.0760  161.9570  126.8230 N.am      1 P0G446      0.0000
     18 OAR       114.8610  161.0600  124.5190 O.3       1 P0G446      0.0000
     19 CAS       115.8750  162.8930  125.8050 C.2       1 P0G446      0.0000
     20 CAT       107.7720  160.8170  120.3410 C.ar      1 P0G446      0.0000
     21 CAU       115.3060  159.9350  127.9860 C.ar      1 P0G446      0.0000
     22 CAV       108.7550  159.8280  120.2510 C.ar      1 P0G446      0.0000
     23 CAW       114.0400  158.9690  125.6780 C.ar      1 P0G446      0.0000
     24 CAX       115.3560  160.6680  126.8340 C.ar      1 P0G446      0.0000
     25 CAY       114.7350  160.2010  125.6750 C.ar      1 P0G446      0.0000
     26 CAZ       113.3450  158.3920  124.4790 C.3       1 P0G446      0.0000
     27 CBA       110.5340  159.6520  122.2390 C.3       1 P0G446      0.0000
@<TRIPOS>BOND
     1    1   20 1
     2    2   27 1
     3    3   27 1
     4    4   19 2
     5    5   21 1
     6    6   26 1
     7    7    8 ar
     8    7    9 ar
     9    8   10 ar
    10    9   20 ar
    11   10   22 ar
    12   11   12 ar
    13   11   21 ar
    14   12   23 ar
    15   13   18 1
    16   13   19 1
    17   14   16 1
    18   14   26 1
    19   15   22 1
    20   15   27 1
    21   16   27 1
    22   17   19 am
    23   17   24 1
    24   18   25 1
    25   20   22 ar
    26   21   24 ar
    27   23   25 ar
    28   23   26 1
    29   24   25 ar
@<TRIPOS>SUBSTRUCTURE
     1 P0G446      1 RESIDUE           4 R     P0G     0 ROOT
