# created with PyMOL 2.3.5
@<TRIPOS>MOLECULE
HRG
29 28 1                 
SMALL
USER_CHARGES
@<TRIPOS>ATOM
1	   N	2.823	1.769	-0.298	N.3	1	HRG0	0.000	
2	  CA	2.800	0.458	0.365	C.3	1	HRG0	0.000	
3	  CB	1.607	-0.351	-0.147	C.3	1	HRG0	0.000	
4	  CG	-0.887	-0.473	-0.240	C.3	1	HRG0	0.000	
5	 CG'	0.307	0.337	0.272	C.3	1	HRG0	0.000	
6	  CD	-2.187	0.216	0.179	C.3	1	HRG0	0.000	
7	  NE	-3.330	-0.560	-0.310	N.pl3	1	HRG0	0.000	
8	  CZ	-4.611	-0.133	-0.054	C.2	1	HRG0	0.000	
9	 NH1	-5.628	-0.822	-0.490	N.2	1	HRG0	0.000	
10	 NH2	-4.820	1.022	0.663	N.pl3	1	HRG0	0.000	
11	   C	4.077	-0.281	0.059	C.2	1	HRG0	0.000	
12	   O	4.747	0.038	-0.894	O.co2	1	HRG0	0.000	
13	 OXT	4.470	-1.295	0.846	O.3	1	HRG0	0.000	
14	HN1A	3.677	2.224	-0.011	 H	1	HRG0	0.000	
15	 HN2	2.907	1.592	-1.288	 H	1	HRG0	0.000	
16	  HA	2.710	0.598	1.442	 H	1	HRG0	0.000	
17	 HB1	1.651	-0.415	-1.234	 H	1	HRG0	0.000	
18	 HB2	1.640	-1.355	0.277	 H	1	HRG0	0.000	
19	 HG1	-0.843	-0.536	-1.327	 H	1	HRG0	0.000	
20	 HG2	-0.853	-1.476	0.185	 H	1	HRG0	0.000	
21	HG'1	0.263	0.401	1.359	 H	1	HRG0	0.000	
22	HG'2	0.273	1.341	-0.152	 H	1	HRG0	0.000	
23	 HD1	-2.231	0.279	1.267	 H	1	HRG0	0.000	
24	 HD2	-2.220	1.219	-0.245	 H	1	HRG0	0.000	
25	 HNE	-3.182	-1.374	-0.816	 H	1	HRG0	0.000	
26	 HN1	-6.532	-0.521	-0.308	 H	1	HRG0	0.000	
27	HN21	-5.724	1.323	0.844	 H	1	HRG0	0.000	
28	HN22	-4.064	1.535	0.987	 H	1	HRG0	0.000	
29	 HXT	5.290	-1.769	0.650	 H	1	HRG0	0.000	
@<TRIPOS>BOND
1 1 2 1
2 1 14 1
3 1 15 1
4 2 3 1
5 2 11 1
6 2 16 1
7 3 5 1
8 3 17 1
9 3 18 1
10 4 5 1
11 4 6 1
12 4 19 1
13 4 20 1
14 5 21 1
15 5 22 1
16 6 7 1
17 6 23 1
18 6 24 1
19 7 8 1
20 7 25 1
21 8 9 2
22 8 10 1
23 9 26 1
24 10 27 1
25 10 28 1
26 11 12 2
27 11 13 1
28 13 29 1
@<TRIPOS>SUBSTRUCTURE
1	HRG0	1	GROUP	1 ****	HRG
