# created with PyMOL 2.3.5
@<TRIPOS>MOLECULE
NVN
44 46 1 0 0
SMALL
USER_CHARGES


@<TRIPOS>ATOM
      1 C1          2.2680    3.9210   -0.1870 C.3       1 NVN1        0.0000
      2 C10         1.4690    1.5710   -0.4670 C.2       1 NVN1        0.0000
      3 C11        -0.6090   -0.3940   -0.3560 C.2       1 NVN1        0.0000
      4 C12        -2.9480   -0.8350   -0.4310 C.2       1 NVN1        0.0000
      5 C13        -3.3220    0.5020   -0.4640 C.2       1 NVN1        0.0000
      6 C14        -4.6260    0.8610   -0.1840 C.2       1 NVN1        0.0000
      7 C15        -5.5630   -0.1150    0.1310 C.2       1 NVN1        0.0000
      8 C16        -5.1880   -1.4520    0.1630 C.2       1 NVN1        0.0000
      9 C17        -3.8850   -1.8110   -0.1170 C.2       1 NVN1        0.0000
     10 C18        -7.8720   -0.7800    0.7470 C.3       1 NVN1        0.0000
     11 C19        -7.2780    1.6600    0.3810 C.3       1 NVN1        0.0000
     12 C2          2.5190    2.4350   -0.1820 C.2       1 NVN1        0.0000
     13 C3          4.0050    0.6850    0.1110 C.2       1 NVN1        0.0000
     14 C4          5.3020    0.2270    0.4070 C.2       1 NVN1        0.0000
     15 C5          5.5600   -1.1120    0.4240 C.2       1 NVN1        0.0000
     16 C6          4.5550   -2.0390    0.1540 C.2       1 NVN1        0.0000
     17 C7          3.2860   -1.6300   -0.1370 C.2       1 NVN1        0.0000
     18 C8          2.9870   -0.2600   -0.1630 C.2       1 NVN1        0.0000
     19 C9          1.6840    0.2040   -0.4600 C.2       1 NVN1        0.0000
     20 F1          4.8400   -3.3590    0.1790 F         1 NVN1        0.0000
     21 F2          6.2900    1.1110    0.6710 F         1 NVN1        0.0000
     22 N1          3.7240    1.9930    0.0920 N.2       1 NVN1        0.0000
     23 N2          0.6510   -0.6870   -0.7350 N.pl3     1 NVN1        0.0000
     24 N3         -1.6260   -1.2000   -0.7210 N.pl3     1 NVN1        0.0000
     25 N4         -6.8840    0.2490    0.4150 N.pl3     1 NVN1        0.0000
     26 O1         -0.8290    0.5960    0.3130 O.2       1 NVN1        0.0000
     27 H3          1.9670    4.2420    0.8100 H         1 NVN1        0.0000
     28 H1          3.1800    4.4430   -0.4770 H         1 NVN1        0.0000
     29 H2          1.4750    4.1530   -0.8980 H         1 NVN1        0.0000
     30 H6          0.4880    1.9650   -0.6880 H         1 NVN1        0.0000
     31 H9         -2.5940    1.2600   -0.7080 H         1 NVN1        0.0000
     32 H10        -4.9170    1.9010   -0.2090 H         1 NVN1        0.0000
     33 H11        -5.9170   -2.2110    0.4080 H         1 NVN1        0.0000
     34 H12        -3.5940   -2.8500   -0.0910 H         1 NVN1        0.0000
     35 H13        -7.5500   -1.3190    1.6380 H         1 NVN1        0.0000
     36 H14        -8.8370   -0.3100    0.9360 H         1 NVN1        0.0000
     37 H15        -7.9640   -1.4770   -0.0860 H         1 NVN1        0.0000
     38 H16        -7.6150    1.9180   -0.6230 H         1 NVN1        0.0000
     39 H17        -8.0880    1.8270    1.0910 H         1 NVN1        0.0000
     40 H18        -6.4250    2.2820    0.6500 H         1 NVN1        0.0000
     41 H4          6.5570   -1.4590    0.6510 H         1 NVN1        0.0000
     42 H5          2.5150   -2.3570   -0.3460 H         1 NVN1        0.0000
     43 H7          0.8370   -1.5180   -1.1980 H         1 NVN1        0.0000
     44 H8         -1.4440   -2.0330   -1.1840 H         1 NVN1        0.0000
@<TRIPOS>BOND
     1   16   20 1
     2   15   16 2
     3   14   15 1
     4   16   17 1
     5   14   21 1
     6   13   14 2
     7   17   18 2
     8   13   18 1
     9   13   22 1
    10   18   19 1
    11   12   22 2
    12   19   23 1
    13    2   19 2
    14    3   23 1
    15    2   12 1
    16    1   12 1
    17    3   24 1
    18    4   24 1
    19    3   26 2
    20    4    5 2
    21    5    6 1
    22    4    9 1
    23    6    7 2
    24    8    9 2
    25    7    8 1
    26    7   25 1
    27   11   25 1
    28   10   25 1
    29    1   27 1
    30    1   28 1
    31    1   29 1
    32    2   30 1
    33    5   31 1
    34    6   32 1
    35    8   33 1
    36    9   34 1
    37   10   35 1
    38   10   36 1
    39   10   37 1
    40   11   38 1
    41   11   39 1
    42   11   40 1
    43   15   41 1
    44   17   42 1
    45   23   43 1
    46   24   44 1
@<TRIPOS>SUBSTRUCTURE
     1 NVN1        1 RESIDUE           4 A     NVN     0 ROOT
