# created with PyMOL 2.3.5
@<TRIPOS>MOLECULE
7Y9
66 69 1 0 0
SMALL
USER_CHARGES


@<TRIPOS>ATOM
      1 C10         6.6600    1.7820   -2.2940 C.3       1 7Y91        0.0000
      2 C13         7.4740    1.6730    1.1620 C.2       1 7Y91        0.0000
      3 C15         2.9880   -0.0380   -2.2080 C.2       1 7Y91        0.0000
      4 C17         2.3040   -0.3150   -1.0330 C.2       1 7Y91        0.0000
      5 C20         8.7060   -0.2940    1.7620 C.2       1 7Y91        0.0000
      6 C21         0.4660   -1.2250    0.1700 C.3       1 7Y91        0.0000
      7 C22        -0.8280   -1.9570   -0.0750 C.2       1 7Y91        0.0000
      8 C24        -3.1820   -1.9190   -0.5070 C.2       1 7Y91        0.0000
      9 C26        -4.4570   -1.1450   -0.7260 C.3       1 7Y91        0.0000
     10 C28        -2.0320   -4.0110   -0.3250 C.2       1 7Y91        0.0000
     11 O01         1.1150   -0.9730   -1.0780 O.3       1 7Y91        0.0000
     12 O02         9.5550   -0.9390    2.6040 O.3       1 7Y91        0.0000
     13 O03        -5.0970   -0.9160    0.5300 O.3       1 7Y91        0.0000
     14 N04       -10.5610    2.1730    1.5570 N.2       1 7Y91        0.0000
     15 N05       -10.4440    2.3740   -0.7540 N.pl3     1 7Y91        0.0000
     16 C06         6.0470    1.7420   -0.8930 C.3       1 7Y91        0.0000
     17 C07         4.7280    1.0130   -0.9420 C.2       1 7Y91        0.0000
     18 C08         6.9830    1.0230    0.0440 C.2       1 7Y91        0.0000
     19 C09         5.8220    3.1700   -0.3940 C.3       1 7Y91        0.0000
     20 C11         4.1990    0.6260   -2.1590 C.2       1 7Y91        0.0000
     21 C12         4.0430    0.7470    0.2290 C.2       1 7Y91        0.0000
     22 C14         7.3500   -0.2850   -0.2150 C.2       1 7Y91        0.0000
     23 C16         2.8350    0.0790    0.1860 C.2       1 7Y91        0.0000
     24 C18         8.3370    1.0190    2.0190 C.2       1 7Y91        0.0000
     25 C19         8.2080   -0.9450    0.6430 C.2       1 7Y91        0.0000
     26 C23        -1.9950   -1.2470   -0.2820 C.2       1 7Y91        0.0000
     27 C25        -0.8460   -3.3400   -0.1000 C.2       1 7Y91        0.0000
     28 C27        -3.2010   -3.3010   -0.5260 C.2       1 7Y91        0.0000
     29 C29        -6.2670   -0.2260    0.5100 C.2       1 7Y91        0.0000
     30 C30        -6.7890    0.2150   -0.7000 C.2       1 7Y91        0.0000
     31 C31        -6.9410    0.0310    1.6970 C.2       1 7Y91        0.0000
     32 C32        -8.6530    1.1800    0.4670 C.2       1 7Y91        0.0000
     33 C33        -7.9760    0.9150   -0.7240 C.2       1 7Y91        0.0000
     34 C34        -8.1280    0.7300    1.6790 C.2       1 7Y91        0.0000
     35 C35        -9.9270    1.9310    0.4440 C.2       1 7Y91        0.0000
     36 H1          5.9830    2.3010   -2.9720 H         1 7Y91        0.0000
     37 H2          7.6140    2.3090   -2.2590 H         1 7Y91        0.0000
     38 H3          6.8200    0.7640   -2.6500 H         1 7Y91        0.0000
     39 H4          7.1860    2.6940    1.3620 H         1 7Y91        0.0000
     40 H5          2.5770   -0.3440   -3.1580 H         1 7Y91        0.0000
     41 H6          0.2590   -0.2780    0.6690 H         1 7Y91        0.0000
     42 H7          1.1140   -1.8340    0.8000 H         1 7Y91        0.0000
     43 H8         -4.2250   -0.1890   -1.1960 H         1 7Y91        0.0000
     44 H9         -5.1220   -1.7160   -1.3740 H         1 7Y91        0.0000
     45 H10        -2.0460   -5.0910   -0.3440 H         1 7Y91        0.0000
     46 H11         9.1130   -1.4130    3.3210 H         1 7Y91        0.0000
     47 H12       -11.3970    2.6650    1.5420 H         1 7Y91        0.0000
     48 H13       -11.2800    2.8670   -0.7690 H         1 7Y91        0.0000
     49 H14        -9.9730    2.1940   -1.5820 H         1 7Y91        0.0000
     50 H15         5.3850    3.1410    0.6050 H         1 7Y91        0.0000
     51 H16         6.7750    3.6970   -0.3580 H         1 7Y91        0.0000
     52 H17         5.1450    3.6900   -1.0720 H         1 7Y91        0.0000
     53 H18         4.7330    0.8420   -3.0730 H         1 7Y91        0.0000
     54 H19         4.4530    1.0610    1.1770 H         1 7Y91        0.0000
     55 H20         6.9650   -0.7900   -1.0880 H         1 7Y91        0.0000
     56 H21         2.3030   -0.1360    1.1020 H         1 7Y91        0.0000
     57 H22         8.7230    1.5280    2.8900 H         1 7Y91        0.0000
     58 H23         8.4940   -1.9670    0.4400 H         1 7Y91        0.0000
     59 H24        -1.9810   -0.1680   -0.2670 H         1 7Y91        0.0000
     60 H25         0.0680   -3.8940    0.0570 H         1 7Y91        0.0000
     61 H26        -4.1290   -3.8260   -0.6980 H         1 7Y91        0.0000
     62 H27        -6.2650    0.0100   -1.6210 H         1 7Y91        0.0000
     63 H28        -6.5340   -0.3180    2.6350 H         1 7Y91        0.0000
     64 H29        -8.3810    1.2590   -1.6650 H         1 7Y91        0.0000
     65 H30        -8.6510    0.9290    2.6020 H         1 7Y91        0.0000
     66 HN1       -10.1819    1.8483    2.4350 H         1 7Y91        0.0000
@<TRIPOS>BOND
     1   16   19 1
     2   22   25 2
     3    5   25 1
     4   18   22 1
     5    5   12 1
     6    5   24 2
     7   16   18 1
     8    2   18 2
     9   16   17 1
    10    1   16 1
    11    2   24 1
    12   17   20 2
    13    3   20 1
    14   17   21 1
    15    3    4 2
    16   21   23 2
    17    4   23 1
    18    4   11 1
    19    6   11 1
    20    6    7 1
    21    7   26 2
    22    8   26 1
    23    7   27 1
    24   30   33 2
    25   29   30 1
    26   32   33 1
    27   14   35 2
    28    9   13 1
    29   13   29 1
    30    8    9 1
    31   29   31 2
    32    8   28 2
    33   32   35 1
    34   32   34 2
    35   15   35 1
    36   31   34 1
    37   10   27 2
    38   10   28 1
    39    1   36 1
    40    1   37 1
    41    1   38 1
    42    2   39 1
    43    3   40 1
    44    6   41 1
    45    6   42 1
    46    9   43 1
    47    9   44 1
    48   10   45 1
    49   12   46 1
    50   14   47 1
    51   15   48 1
    52   15   49 1
    53   19   50 1
    54   19   51 1
    55   19   52 1
    56   20   53 1
    57   21   54 1
    58   22   55 1
    59   23   56 1
    60   24   57 1
    61   25   58 1
    62   26   59 1
    63   27   60 1
    64   28   61 1
    65   30   62 1
    66   31   63 1
    67   33   64 1
    68   34   65 1
    69   66   14 1
@<TRIPOS>SUBSTRUCTURE
     1 7Y91        1 RESIDUE           4 A     7Y9     0 ROOT
