@<TRIPOS>MOLECULE
08Y
43 49 1 0 0
SMALL
NO_CHARGES


@<TRIPOS>ATOM
      1 O5        109.4630  127.3810   93.5950 O.2       1 08Y543      0.0000
      2 C15       108.9830  126.8640   94.6000 C.2       1 08Y543      0.0000
      3 C16       109.8410  126.4900   95.8100 C.3       1 08Y543      0.0000
      4 C18       110.5410  125.1590   95.5640 C.3       1 08Y543      0.0000
      5 N4        111.5090  124.8870   96.6330 N.4       1 08Y543      0.0000
      6 C27       111.9690  123.5070   96.4990 C.3       1 08Y543      0.0000
      7 C22       110.8670  127.5500   96.0920 C.2       1 08Y543      0.0000
      8 C21       112.1210  127.2840   96.4560 C.2       1 08Y543      0.0000
      9 C24       113.0790  128.3600   96.8150 C.ar      1 08Y543      0.0000
     10 C30       112.8640  129.7240   96.6300 C.ar      1 08Y543      0.0000
     11 C32       113.8300  130.6450   97.0150 C.ar      1 08Y543      0.0000
     12 C31       115.0160  130.2380   97.6100 C.ar      1 08Y543      0.0000
     13 C28       115.2200  128.8820   97.8390 C.ar      1 08Y543      0.0000
     14 C26       114.2470  127.9530   97.4640 C.ar      1 08Y543      0.0000
     15 C25       114.5650  126.6640   97.9540 C.ar      1 08Y543      0.0000
     16 C23       113.5440  125.5800   97.8220 C.3       1 08Y543      0.0000
     17 C17       112.6370  125.8460   96.6080 C.3       1 08Y543      0.0000
     18 C29       115.7960  126.9040   98.5820 C.ar      1 08Y543      0.0000
     19 N5        116.2110  128.2040   98.5280 N.ar      1 08Y543      0.0000
     20 BR        116.7990  125.6100   99.4590 Br        1 08Y543      0.0000
     21 N3        107.6830  126.5730   94.7460 N.am      1 08Y543      0.0000
     22 C5        106.6210  126.8210   93.8020 C.3       1 08Y543      0.0000
     23 O1        106.6170  125.8990   92.7050 O.3       1 08Y543      0.0000
     24 C11       105.2910  126.6260   94.5460 C.3       1 08Y543      0.0000
     25 C14       105.2190  127.4880   95.7880 C.3       1 08Y543      0.0000
     26 C13       104.0960  126.9060   93.6540 C.3       1 08Y543      0.0000
     27 C8        106.7750  128.1960   93.1220 C.2       1 08Y543      0.0000
     28 O3        106.6570  129.2930   93.6320 O.2       1 08Y543      0.0000
     29 N1        107.0810  127.9410   91.8280 N.am      1 08Y543      0.0000
     30 C3        107.3610  128.9300   90.7930 C.3       1 08Y543      0.0000
     31 C10       108.8620  129.1270   90.5790 C.3       1 08Y543      0.0000
     32 C12       109.5310  130.0890   91.5530 C.3       1 08Y543      0.0000
     33 C20       110.9890  129.7300   91.7580 C.3       1 08Y543      0.0000
     34 C19       109.4110  131.5160   91.0610 C.3       1 08Y543      0.0000
     35 C9        106.7440  128.5440   89.4650 C.2       1 08Y543      0.0000
     36 O4        106.8870  129.2800   88.5060 O.2       1 08Y543      0.0000
     37 N2        106.0550  127.3930   89.4010 N.am      1 08Y543      0.0000
     38 C6        105.2860  127.0010   88.2100 C.3       1 08Y543      0.0000
     39 C7        105.1080  125.4860   88.3690 C.3       1 08Y543      0.0000
     40 C4        105.8680  125.0820   89.6320 C.3       1 08Y543      0.0000
     41 C1        105.9080  126.3750   90.4470 C.3       1 08Y543      0.0000
     42 C2        106.9980  126.5300   91.4860 C.3       1 08Y543      0.0000
     43 O2        108.1860  126.0220   91.0100 O.3       1 08Y543      0.0000
@<TRIPOS>BOND
     1    1    2 2
     2    2    3 1
     3    2   21 am
     4    3    4 1
     5    3    7 1
     6    4    5 1
     7    5    6 1
     8    5   17 1
     9    7    8 2
    10    8    9 1
    11    8   17 1
    12    9   10 ar
    13    9   14 ar
    14   10   11 ar
    15   11   12 ar
    16   12   13 ar
    17   13   14 ar
    18   13   19 ar
    19   14   15 ar
    20   15   16 1
    21   15   18 ar
    22   16   17 1
    23   18   19 ar
    24   18   20 1
    25   21   22 1
    26   22   23 1
    27   22   24 1
    28   22   27 1
    29   23   42 1
    30   24   25 1
    31   24   26 1
    32   27   28 2
    33   27   29 am
    34   29   30 1
    35   29   42 1
    36   30   31 1
    37   30   35 1
    38   31   32 1
    39   32   33 1
    40   32   34 1
    41   35   36 2
    42   35   37 am
    43   37   38 1
    44   37   41 1
    45   38   39 1
    46   39   40 1
    47   40   41 1
    48   41   42 1
    49   42   43 1
@<TRIPOS>SUBSTRUCTURE
     1 08Y543      1 RESIDUE           4 R     08Y     0 ROOT
