@<TRIPOS>MOLECULE
08Y
43 49 1 0 0
SMALL
NO_CHARGES


@<TRIPOS>ATOM
      1 O5        102.2390  130.0680  128.2250 O.2       1 08Y543      0.0000
      2 C15       102.3160  128.9340  128.5830 C.2       1 08Y543      0.0000
      3 C16       102.8000  127.9020  127.6090 C.3       1 08Y543      0.0000
      4 C18       102.1130  128.1000  126.2650 C.3       1 08Y543      0.0000
      5 N4        102.8320  127.3590  125.2150 N.4       1 08Y543      0.0000
      6 C27       102.0720  127.4210  123.9640 C.3       1 08Y543      0.0000
      7 C22       104.3150  128.0440  127.4930 C.2       1 08Y543      0.0000
      8 C21       104.9530  128.1600  126.3120 C.2       1 08Y543      0.0000
      9 C24       106.4140  128.3510  126.2240 C.ar      1 08Y543      0.0000
     10 C30       107.1990  128.9830  127.1820 C.ar      1 08Y543      0.0000
     11 C32       108.5890  129.0830  126.9560 C.ar      1 08Y543      0.0000
     12 C31       109.1640  128.5540  125.7890 C.ar      1 08Y543      0.0000
     13 C28       108.3280  127.9390  124.8810 C.ar      1 08Y543      0.0000
     14 C26       107.0280  127.8630  125.1270 C.ar      1 08Y543      0.0000
     15 C25       106.4620  127.2380  124.1140 C.ar      1 08Y543      0.0000
     16 C23       104.9860  126.9650  124.0320 C.3       1 08Y543      0.0000
     17 C17       104.1840  127.9280  124.9820 C.3       1 08Y543      0.0000
     18 C29       107.4400  126.8990  123.1910 C.ar      1 08Y543      0.0000
     19 N5        108.6360  127.3620  123.7010 N.ar      1 08Y543      0.0000
     20 BR        107.1660  125.9930  121.5790 Br        1 08Y543      0.0000
     21 N3        102.0070  128.4170  129.9490 N.am      1 08Y543      0.0000
     22 C5        101.6510  129.2770  131.0640 C.3       1 08Y543      0.0000
     23 O1        100.5850  130.2000  130.7480 O.3       1 08Y543      0.0000
     24 C11       101.2740  128.4310  132.3240 C.3       1 08Y543      0.0000
     25 C14       102.2020  127.2150  132.4540 C.3       1 08Y543      0.0000
     26 C13        99.8390  127.9580  132.1800 C.3       1 08Y543      0.0000
     27 C8        102.8560  130.2200  131.3130 C.2       1 08Y543      0.0000
     28 O3        103.9430  129.8730  131.6010 O.2       1 08Y543      0.0000
     29 N1        102.4480  131.4830  131.0300 N.am      1 08Y543      0.0000
     30 C3        103.2710  132.6800  131.1130 C.3       1 08Y543      0.0000
     31 C10       103.9150  133.0640  129.8050 C.3       1 08Y543      0.0000
     32 C12       105.4660  133.1300  129.9640 C.3       1 08Y543      0.0000
     33 C20       106.1070  132.2570  128.8630 C.3       1 08Y543      0.0000
     34 C19       105.9050  134.5840  129.7550 C.3       1 08Y543      0.0000
     35 C9        102.4880  133.8550  131.6340 C.2       1 08Y543      0.0000
     36 O4        102.9950  134.9330  131.7880 O.2       1 08Y543      0.0000
     37 N2        101.1810  133.6420  131.9100 N.am      1 08Y543      0.0000
     38 C6        100.2980  134.7480  132.4210 C.3       1 08Y543      0.0000
     39 C7         98.9360  134.1910  132.3680 C.3       1 08Y543      0.0000
     40 C4         98.9990  132.9260  131.5000 C.3       1 08Y543      0.0000
     41 C1        100.3900  132.4070  131.7850 C.3       1 08Y543      0.0000
     42 C2        101.0590  131.5490  130.6910 C.3       1 08Y543      0.0000
     43 O2        100.8160  132.0870  129.4370 O.3       1 08Y543      0.0000
@<TRIPOS>BOND
     1    1    2 2
     2    2    3 1
     3    2   21 am
     4    3    4 1
     5    3    7 1
     6    4    5 1
     7    5    6 1
     8    5   17 1
     9    7    8 2
    10    8    9 1
    11    8   17 1
    12    9   10 ar
    13    9   14 ar
    14   10   11 ar
    15   11   12 ar
    16   12   13 ar
    17   13   14 ar
    18   13   19 ar
    19   14   15 ar
    20   15   16 1
    21   15   18 ar
    22   16   17 1
    23   18   19 ar
    24   18   20 1
    25   21   22 1
    26   22   23 1
    27   22   24 1
    28   22   27 1
    29   23   42 1
    30   24   25 1
    31   24   26 1
    32   27   28 2
    33   27   29 am
    34   29   30 1
    35   29   42 1
    36   30   31 1
    37   30   35 1
    38   31   32 1
    39   32   33 1
    40   32   34 1
    41   35   36 2
    42   35   37 am
    43   37   38 1
    44   37   41 1
    45   38   39 1
    46   39   40 1
    47   40   41 1
    48   41   42 1
    49   42   43 1
@<TRIPOS>SUBSTRUCTURE
     1 08Y543      1 RESIDUE           4 R     08Y     0 ROOT
