# created with PyMOL 2.3.5
@<TRIPOS>MOLECULE
1Q5
54 55 1 0 0
SMALL
USER_CHARGES


@<TRIPOS>ATOM
      1 C18        -0.3080    2.4100   -2.0110 C.3       1 1Q51        0.0000
      2 C20        -4.5450    0.1770   -0.1610 C.3       1 1Q51        0.0000
      3 C1          2.5790   -0.6140    0.4490 C.2       1 1Q51        0.0000
      4 C17        -1.2100   -1.9840    1.5740 C.3       1 1Q51        0.0000
      5 C16        -1.0110   -0.8270    0.6300 C.2       1 1Q51        0.0000
      6 C15        -2.1070   -0.1570    0.0930 C.2       1 1Q51        0.0000
      7 C14        -1.8710    0.9090   -0.7770 C.2       1 1Q51        0.0000
      8 C13        -0.5710    1.2600   -1.0730 C.2       1 1Q51        0.0000
      9 C11         0.2660   -0.4100    0.2870 C.2       1 1Q51        0.0000
     10 C6          3.2070   -1.1460   -0.6690 C.2       1 1Q51        0.0000
     11 C7          6.4660    0.7580   -0.6790 C.3       1 1Q51        0.0000
     12 C8          2.5180   -2.2090   -1.4860 C.3       1 1Q51        0.0000
     13 C9          2.5320    0.9510    2.4070 C.3       1 1Q51        0.0000
     14 C5          4.4630   -0.7010   -1.0310 C.2       1 1Q51        0.0000
     15 C4          5.0950    0.2740   -0.2820 C.2       1 1Q51        0.0000
     16 C3          4.4720    0.8050    0.8320 C.2       1 1Q51        0.0000
     17 C2          3.2130    0.3680    1.1960 C.2       1 1Q51        0.0000
     18 C24        -5.5030   -1.9130   -1.1390 C.3       1 1Q51        0.0000
     19 C23        -5.7670   -0.7440   -0.1890 C.3       1 1Q51        0.0000
     20 C21        -4.8550    1.4090    0.6910 C.3       1 1Q51        0.0000
     21 C22        -3.6820    2.3880    0.6180 C.3       1 1Q51        0.0000
     22 N19        -3.4050   -0.5410    0.4150 N.pl3     1 1Q51        0.0000
     23 N12         0.4450    0.6030   -0.5460 N.2       1 1Q51        0.0000
     24 O10         1.3430   -1.0510    0.8070 O.3       1 1Q51        0.0000
     25 H1         -0.2500    2.0380   -3.0340 H         1 1Q51        0.0000
     26 H2         -1.1170    3.1360   -1.9330 H         1 1Q51        0.0000
     27 H3          0.6360    2.8870   -1.7440 H         1 1Q51        0.0000
     28 H4         -4.3030    0.4890   -1.1770 H         1 1Q51        0.0000
     29 H5         -1.2640   -2.9120    1.0050 H         1 1Q51        0.0000
     30 H6         -0.3720   -2.0330    2.2700 H         1 1Q51        0.0000
     31 H7         -2.1360   -1.8440    2.1310 H         1 1Q51        0.0000
     32 H8         -2.6960    1.4520   -1.2130 H         1 1Q51        0.0000
     33 H9          6.3690    1.6020   -1.3620 H         1 1Q51        0.0000
     34 H10         7.0130    1.0700    0.2100 H         1 1Q51        0.0000
     35 H11         7.0060   -0.0490   -1.1740 H         1 1Q51        0.0000
     36 H12         1.9250   -1.7370   -2.2700 H         1 1Q51        0.0000
     37 H13         3.2660   -2.8600   -1.9390 H         1 1Q51        0.0000
     38 H14         1.8660   -2.7970   -0.8410 H         1 1Q51        0.0000
     39 H15         2.7960    0.3670    3.2890 H         1 1Q51        0.0000
     40 H16         2.8570    1.9830    2.5440 H         1 1Q51        0.0000
     41 H17         1.4520    0.9260    2.2640 H         1 1Q51        0.0000
     42 H18         4.9520   -1.1150   -1.9010 H         1 1Q51        0.0000
     43 H19         4.9680    1.5660    1.4160 H         1 1Q51        0.0000
     44 H20        -6.3730   -2.5690   -1.1590 H         1 1Q51        0.0000
     45 H21        -5.3140   -1.5300   -2.1420 H         1 1Q51        0.0000
     46 H22        -4.6330   -2.4730   -0.7940 H         1 1Q51        0.0000
     47 H23        -5.9560   -1.1270    0.8140 H         1 1Q51        0.0000
     48 H24        -6.6360   -0.1840   -0.5340 H         1 1Q51        0.0000
     49 H25        -5.7560    1.8940    0.3150 H         1 1Q51        0.0000
     50 H26        -5.0110    1.1050    1.7260 H         1 1Q51        0.0000
     51 H27        -3.9020    3.2660    1.2250 H         1 1Q51        0.0000
     52 H28        -2.7800    1.9040    0.9930 H         1 1Q51        0.0000
     53 H29        -3.5260    2.6920   -0.4170 H         1 1Q51        0.0000
     54 H30        -3.5560   -1.2840    1.0200 H         1 1Q51        0.0000
@<TRIPOS>BOND
     1   10   12 1
     2    1    8 1
     3   10   14 2
     4   14   15 1
     5   11   15 1
     6    3   10 1
     7   15   16 2
     8    8   23 2
     9    7    8 1
    10   20   21 1
    11    9   23 1
    12    6    7 2
    13    3   24 1
    14    3   17 2
    15    2   20 1
    16   16   17 1
    17    9   24 1
    18    5    9 2
    19    2   22 1
    20    2   19 1
    21    5    6 1
    22    6   22 1
    23   13   17 1
    24    4    5 1
    25   18   19 1
    26    1   25 1
    27    1   26 1
    28    1   27 1
    29    2   28 1
    30    4   29 1
    31    4   30 1
    32    4   31 1
    33    7   32 1
    34   11   33 1
    35   11   34 1
    36   11   35 1
    37   12   36 1
    38   12   37 1
    39   12   38 1
    40   13   39 1
    41   13   40 1
    42   13   41 1
    43   14   42 1
    44   16   43 1
    45   18   44 1
    46   18   45 1
    47   18   46 1
    48   19   47 1
    49   19   48 1
    50   20   49 1
    51   20   50 1
    52   21   51 1
    53   21   52 1
    54   21   53 1
    55   22   54 1
@<TRIPOS>SUBSTRUCTURE
     1 1Q51        1 RESIDUE           4 A     1Q5     0 ROOT
