# created with PyMOL 2.3.5
@<TRIPOS>MOLECULE
PG6
44 43 1                 
SMALL
USER_CHARGES
@<TRIPOS>ATOM
1	  C1	1.558	0.442	-7.265	C.3	1	PG60	0.000	
2	  O1	0.417	0.308	-6.416	O.3	1	PG60	0.000	
3	  C2	0.377	1.473	-5.590	C.3	1	PG60	0.000	
4	  C3	-0.827	1.393	-4.651	C.3	1	PG60	0.000	
5	  O2	-0.714	0.230	-3.829	O.3	1	PG60	0.000	
6	  C4	-1.863	0.211	-2.979	C.3	1	PG60	0.000	
7	  C5	-1.803	-1.015	-2.068	C.3	1	PG60	0.000	
8	  O3	-0.621	-0.958	-1.268	O.3	1	PG60	0.000	
9	  C6	-0.623	-2.124	-0.443	C.3	1	PG60	0.000	
10	  C7	0.623	-2.124	0.443	C.3	1	PG60	0.000	
11	  O4	0.621	-0.957	1.268	O.3	1	PG60	0.000	
12	  C8	1.804	-1.015	2.068	C.3	1	PG60	0.000	
13	  C9	1.863	0.212	2.979	C.3	1	PG60	0.000	
14	  O5	0.714	0.230	3.829	O.3	1	PG60	0.000	
15	 C10	0.827	1.393	4.651	C.3	1	PG60	0.000	
16	 C11	-0.378	1.473	5.590	C.3	1	PG60	0.000	
17	  O6	-0.417	0.307	6.416	O.3	1	PG60	0.000	
18	 C12	-1.559	0.441	7.265	C.3	1	PG60	0.000	
19	 H11	2.459	0.514	-6.654	 H	1	PG60	0.000	
20	 H12	1.630	-0.428	-7.917	 H	1	PG60	0.000	
21	 H13	1.457	1.342	-7.871	 H	1	PG60	0.000	
22	 H21	1.293	1.532	-5.001	 H	1	PG60	0.000	
23	 H22	0.291	2.360	-6.217	 H	1	PG60	0.000	
24	 H31	-0.858	2.282	-4.021	 H	1	PG60	0.000	
25	 H32	-1.743	1.333	-5.240	 H	1	PG60	0.000	
26	 H41	-1.880	1.115	-2.371	 H	1	PG60	0.000	
27	 H42	-2.765	0.167	-3.590	 H	1	PG60	0.000	
28	 H51	-2.680	-1.030	-1.420	 H	1	PG60	0.000	
29	 H52	-1.787	-1.920	-2.676	 H	1	PG60	0.000	
30	 H61	-1.514	-2.124	0.183	 H	1	PG60	0.000	
31	 H62	-0.621	-3.014	-1.072	 H	1	PG60	0.000	
32	 H71	0.622	-3.014	1.072	 H	1	PG60	0.000	
33	 H72	1.515	-2.124	-0.183	 H	1	PG60	0.000	
34	 H81	1.787	-1.919	2.676	 H	1	PG60	0.000	
35	 H82	2.680	-1.029	1.420	 H	1	PG60	0.000	
36	 H91	2.765	0.168	3.590	 H	1	PG60	0.000	
37	 H92	1.880	1.116	2.371	 H	1	PG60	0.000	
38	H101	1.742	1.334	5.240	 H	1	PG60	0.000	
39	H102	0.857	2.282	4.021	 H	1	PG60	0.000	
40	H111	-0.292	2.360	6.217	 H	1	PG60	0.000	
41	H112	-1.293	1.532	5.001	 H	1	PG60	0.000	
42	H121	-1.630	-0.429	7.917	 H	1	PG60	0.000	
43	H122	-1.457	1.341	7.871	 H	1	PG60	0.000	
44	H123	-2.459	0.513	6.654	 H	1	PG60	0.000	
@<TRIPOS>BOND
1 1 2 1
2 1 19 1
3 1 20 1
4 1 21 1
5 2 3 1
6 3 4 1
7 3 22 1
8 3 23 1
9 4 5 1
10 4 24 1
11 4 25 1
12 5 6 1
13 6 7 1
14 6 26 1
15 6 27 1
16 7 8 1
17 7 28 1
18 7 29 1
19 8 9 1
20 9 10 1
21 9 30 1
22 9 31 1
23 10 11 1
24 10 32 1
25 10 33 1
26 11 12 1
27 12 13 1
28 12 34 1
29 12 35 1
30 13 14 1
31 13 36 1
32 13 37 1
33 14 15 1
34 15 16 1
35 15 38 1
36 15 39 1
37 16 17 1
38 16 40 1
39 16 41 1
40 17 18 1
41 18 42 1
42 18 43 1
43 18 44 1
@<TRIPOS>SUBSTRUCTURE
1	PG60	1	GROUP	1 ****	PG6
