# created with PyMOL 2.3.5
@<TRIPOS>MOLECULE
NT5
56 59 1 0 0
SMALL
USER_CHARGES


@<TRIPOS>ATOM
      1 C1          3.3750   -3.0250    1.1610 C.3       1 NT51        0.0000
      2 C10        -6.3690    0.4980   -0.6830 C.2       1 NT51        0.0000
      3 C11        -5.9430   -0.7850   -0.3930 C.2       1 NT51        0.0000
      4 C12        -0.0120   -1.2460    1.0200 C.3       1 NT51        0.0000
      5 C13         2.3320   -0.5480    1.1220 C.2       1 NT51        0.0000
      6 C14         1.8860    0.8610    1.1240 C.2       1 NT51        0.0000
      7 C15         1.0660    1.3350    2.1470 C.2       1 NT51        0.0000
      8 C16         0.6520    2.6520    2.1440 C.2       1 NT51        0.0000
      9 C17         1.0460    3.5080    1.1300 C.2       1 NT51        0.0000
     10 C18         1.8580    3.0550    0.1090 C.2       1 NT51        0.0000
     11 C19         2.2910    1.7330    0.0980 C.2       1 NT51        0.0000
     12 C2          1.8490   -2.9450    1.2300 C.3       1 NT51        0.0000
     13 C20         3.1680    1.2440   -0.9930 C.2       1 NT51        0.0000
     14 C21         4.2260   -0.5180   -2.0280 C.2       1 NT51        0.0000
     15 C22         4.7420    0.3600   -2.9690 C.2       1 NT51        0.0000
     16 C23         4.4290    1.7070   -2.8610 C.2       1 NT51        0.0000
     17 C24        -0.2350    3.1600    3.2510 C.3       1 NT51        0.0000
     18 C3          1.2400   -3.7350    0.0680 C.3       1 NT51        0.0000
     19 C4         -0.2780   -3.5370    0.0610 C.3       1 NT51        0.0000
     20 C5         -0.6000   -2.0540   -0.1400 C.3       1 NT51        0.0000
     21 C6         -2.1180   -1.8620   -0.1790 C.3       1 NT51        0.0000
     22 C7         -3.7290   -0.1570   -0.5550 C.2       1 NT51        0.0000
     23 C8         -4.0830    1.1540   -0.8470 C.2       1 NT51        0.0000
     24 C9         -5.4240    1.4900   -0.9190 C.2       1 NT51        0.0000
     25 F1         -7.6880    0.7830   -0.7430 F         1 NT51        0.0000
     26 N1         -4.6560   -1.0740   -0.3370 N.2       1 NT51        0.0000
     27 N2          1.4230   -1.5430    1.1240 N.pl3     1 NT51        0.0000
     28 N3          3.4520   -0.0490   -1.0650 N.2       1 NT51        0.0000
     29 N4          3.6450    2.1100   -1.8770 N.2       1 NT51        0.0000
     30 O1         -2.4170   -0.4980   -0.4830 O.3       1 NT51        0.0000
     31 O2          3.5200   -0.8090    1.1180 O.2       1 NT51        0.0000
     32 H12         3.8050   -2.5120    2.0210 H         1 NT51        0.0000
     33 H11         3.6850   -4.0700    1.1680 H         1 NT51        0.0000
     34 H13         3.7220   -2.5500    0.2430 H         1 NT51        0.0000
     35 H111       -6.6720   -1.5600   -0.2080 H         1 NT51        0.0000
     36 H122       -0.1520   -0.1810    0.8320 H         1 NT51        0.0000
     37 H121       -0.5100   -1.5210    1.9500 H         1 NT51        0.0000
     38 H151        0.7550    0.6720    2.9410 H         1 NT51        0.0000
     39 H171        0.7160    4.5360    1.1380 H         1 NT51        0.0000
     40 H181        2.1620    3.7290   -0.6790 H         1 NT51        0.0000
     41 H21         1.5040   -3.3610    2.1770 H         1 NT51        0.0000
     42 H211        4.4510   -1.5730   -2.0840 H         1 NT51        0.0000
     43 H221        5.3780    0.0040   -3.7670 H         1 NT51        0.0000
     44 H231        4.8150    2.4180   -3.5780 H         1 NT51        0.0000
     45 H241        0.3820    3.5450    4.0630 H         1 NT51        0.0000
     46 H243       -0.8720    3.9580    2.8690 H         1 NT51        0.0000
     47 H242       -0.8570    2.3450    3.6220 H         1 NT51        0.0000
     48 H32         1.6570   -3.3760   -0.8740 H         1 NT51        0.0000
     49 H31         1.4690   -4.7940    0.1870 H         1 NT51        0.0000
     50 H42        -0.7170   -4.1170   -0.7500 H         1 NT51        0.0000
     51 H41        -0.6920   -3.8720    1.0120 H         1 NT51        0.0000
     52 H51        -0.1650   -1.7120   -1.0790 H         1 NT51        0.0000
     53 H61        -2.5460   -2.5080   -0.9450 H         1 NT51        0.0000
     54 H62        -2.5410   -2.1200    0.7920 H         1 NT51        0.0000
     55 H81        -3.3220    1.8990   -1.0250 H         1 NT51        0.0000
     56 H91        -5.7280    2.4990   -1.1530 H         1 NT51        0.0000
@<TRIPOS>BOND
     1   18   19 1
     2   19   20 1
     3   12   18 1
     4   20   21 1
     5    4   20 1
     6   21   30 1
     7    1   12 1
     8    4   27 1
     9   12   27 1
    10   22   30 1
    11   22   26 2
    12    3   26 1
    13   22   23 1
    14    2    3 2
    15    5   27 1
    16   23   24 2
    17    2   24 1
    18    2   25 1
    19    5   31 2
    20    5    6 1
    21   14   15 2
    22   14   28 1
    23   15   16 1
    24   13   28 2
    25   16   29 2
    26    6    7 2
    27    6   11 1
    28   13   29 1
    29   11   13 1
    30    7    8 1
    31   10   11 2
    32    8   17 1
    33    8    9 2
    34    9   10 1
    35    1   32 1
    36    1   33 1
    37    1   34 1
    38    3   35 1
    39    4   36 1
    40    4   37 1
    41    7   38 1
    42    9   39 1
    43   10   40 1
    44   12   41 1
    45   14   42 1
    46   15   43 1
    47   16   44 1
    48   17   45 1
    49   17   46 1
    50   17   47 1
    51   18   48 1
    52   18   49 1
    53   19   50 1
    54   19   51 1
    55   20   52 1
    56   21   53 1
    57   21   54 1
    58   23   55 1
    59   24   56 1
@<TRIPOS>SUBSTRUCTURE
     1 NT51        1 RESIDUE           4 A     NT5     0 ROOT
