# created with PyMOL 2.3.5
@<TRIPOS>MOLECULE
XTK
45 46 1                 
SMALL
USER_CHARGES
@<TRIPOS>ATOM
1	  N3	5.858	-3.471	-0.196	N.1	1	XTK0	0.000	
2	 C16	5.195	-2.550	-0.156	C.1	1	XTK0	0.000	
3	  C1	4.359	-1.388	-0.105	C.2	1	XTK0	0.000	
4	  N1	4.805	-0.081	-0.067	N.pl3	1	XTK0	0.000	
5	  C8	3.715	0.758	-0.025	C.2	1	XTK0	0.000	
6	  C7	3.582	2.143	0.024	C.2	1	XTK0	0.000	
7	  C6	2.330	2.716	0.059	C.2	1	XTK0	0.000	
8	  C5	1.189	1.926	0.047	C.2	1	XTK0	0.000	
9	  C2	2.999	-1.395	-0.094	C.2	1	XTK0	0.000	
10	  C3	2.562	-0.050	-0.038	C.2	1	XTK0	0.000	
11	  C4	1.292	0.550	-0.001	C.2	1	XTK0	0.000	
12	  O1	0.172	-0.219	-0.011	O.3	1	XTK0	0.000	
13	  C9	-1.083	0.463	0.029	C.3	1	XTK0	0.000	
14	 C10	-2.220	-0.561	0.010	C.3	1	XTK0	0.000	
15	  O2	-2.176	-1.344	1.205	O.3	1	XTK0	0.000	
16	 C11	-3.562	0.168	-0.073	C.3	1	XTK0	0.000	
17	  N2	-4.653	-0.815	-0.091	N.3	1	XTK0	0.000	
18	 C12	-5.960	-0.149	-0.171	C.3	1	XTK0	0.000	
19	 C15	-6.031	0.686	-1.451	C.3	1	XTK0	0.000	
20	 C14	-7.069	-1.203	-0.187	C.3	1	XTK0	0.000	
21	 C13	-6.142	0.764	1.044	C.3	1	XTK0	0.000	
22	 C17	4.810	3.016	0.038	C.3	1	XTK0	0.000	
23	  H1	5.734	0.200	-0.068	 H	1	XTK0	0.000	
24	  H2	2.367	-2.269	-0.121	 H	1	XTK0	0.000	
25	  H6	2.235	3.791	0.097	 H	1	XTK0	0.000	
26	H171	5.093	3.262	-0.986	 H	1	XTK0	0.000	
27	H172	4.597	3.934	0.586	 H	1	XTK0	0.000	
28	H173	5.628	2.485	0.524	 H	1	XTK0	0.000	
29	  H5	0.214	2.391	0.076	 H	1	XTK0	0.000	
30	H91C	-1.145	1.057	0.940	 H	1	XTK0	0.000	
31	H92C	-1.169	1.117	-0.839	 H	1	XTK0	0.000	
32	 H10	-2.107	-1.214	-0.856	 H	1	XTK0	0.000	
33	  HA	-2.271	-0.827	2.017	 H	1	XTK0	0.000	
34	H111	-3.675	0.821	0.793	 H	1	XTK0	0.000	
35	H112	-3.595	0.765	-0.984	 H	1	XTK0	0.000	
36	  HB	-4.536	-1.472	-0.848	 H	1	XTK0	0.000	
37	H151	-5.901	0.036	-2.316	 H	1	XTK0	0.000	
38	H152	-7.001	1.180	-1.510	 H	1	XTK0	0.000	
39	H153	-5.240	1.437	-1.439	 H	1	XTK0	0.000	
40	H141	-7.019	-1.797	0.725	 H	1	XTK0	0.000	
41	H142	-8.039	-0.709	-0.246	 H	1	XTK0	0.000	
42	H143	-6.940	-1.853	-1.053	 H	1	XTK0	0.000	
43	H131	-5.352	1.515	1.056	 H	1	XTK0	0.000	
44	H132	-7.112	1.258	0.985	 H	1	XTK0	0.000	
45	H133	-6.092	0.169	1.956	 H	1	XTK0	0.000	
@<TRIPOS>BOND
1 1 2 3
2 2 3 1
3 3 4 1
4 3 9 2
5 4 5 1
6 5 6 1
7 5 10 2
8 6 7 2
9 6 22 1
10 7 8 1
11 8 11 2
12 9 10 1
13 10 11 1
14 11 12 1
15 12 13 1
16 13 14 1
17 14 15 1
18 14 16 1
19 16 17 1
20 17 18 1
21 18 19 1
22 18 20 1
23 18 21 1
24 4 23 1
25 9 24 1
26 7 25 1
27 22 26 1
28 22 27 1
29 22 28 1
30 8 29 1
31 13 30 1
32 13 31 1
33 14 32 1
34 15 33 1
35 16 34 1
36 16 35 1
37 17 36 1
38 19 37 1
39 19 38 1
40 19 39 1
41 20 40 1
42 20 41 1
43 20 42 1
44 21 43 1
45 21 44 1
46 21 45 1
@<TRIPOS>SUBSTRUCTURE
1	XTK0	1	GROUP	1 ****	XTK
