# created with PyMOL 2.3.5
@<TRIPOS>MOLECULE
NVH
46 49 1 0 0
SMALL
USER_CHARGES


@<TRIPOS>ATOM
      1 C1         -2.9720   -3.4750    0.6270 C.2       1 NVH1        0.0000
      2 C10         1.9750   -1.3630    0.0440 C.2       1 NVH1        0.0000
      3 C11         2.7370   -2.5080    0.2350 C.2       1 NVH1        0.0000
      4 C12        -1.9720    0.6210   -1.6870 C.3       1 NVH1        0.0000
      5 C13        -2.9500    3.7900    1.0120 C.2       1 NVH1        0.0000
      6 C14        -1.6800    3.7110    0.4690 C.2       1 NVH1        0.0000
      7 C15        -1.3630    2.6850   -0.4050 C.2       1 NVH1        0.0000
      8 C16        -2.3170    1.7380   -0.7360 C.2       1 NVH1        0.0000
      9 C17        -3.5880    1.8170   -0.1920 C.2       1 NVH1        0.0000
     10 C18        -3.9030    2.8390    0.6860 C.2       1 NVH1        0.0000
     11 C19         5.2590    1.6630   -1.6920 C.3       1 NVH1        0.0000
     12 C2         -4.3070   -3.2360    0.3010 C.2       1 NVH1        0.0000
     13 C3         -4.6220   -2.1020   -0.4210 C.2       1 NVH1        0.0000
     14 C4         -2.4150   -1.4260   -0.5220 C.2       1 NVH1        0.0000
     15 C5         -0.1430   -0.5160   -0.7540 C.2       1 NVH1        0.0000
     16 C6         -2.0480   -2.5610    0.2070 C.2       1 NVH1        0.0000
     17 C7          4.6830   -1.2770    0.3130 C.2       1 NVH1        0.0000
     18 C8          3.9940   -0.0940    0.1250 C.2       1 NVH1        0.0000
     19 C9          2.6150   -0.1270   -0.0120 C.2       1 NVH1        0.0000
     20 F1         -3.2590    4.7910    1.8650 F         1 NVH1        0.0000
     21 F2         -0.1230    2.6090   -0.9360 F         1 NVH1        0.0000
     22 F3         -4.5190    0.8930   -0.5150 F         1 NVH1        0.0000
     23 N1         -3.6980   -1.2440   -0.8080 N.2       1 NVH1        0.0000
     24 N2          4.0460   -2.4310    0.3610 N.2       1 NVH1        0.0000
     25 N3         -1.4540   -0.5210   -0.9310 N.pl3     1 NVH1        0.0000
     26 N4          0.5850   -1.4490   -0.0960 N.pl3     1 NVH1        0.0000
     27 O1          0.4700    0.4200   -1.2300 O.2       1 NVH1        0.0000
     28 O2          0.1070   -3.8760   -0.1700 O.2       1 NVH1        0.0000
     29 O3         -0.1840   -2.6050    1.9510 O.2       1 NVH1        0.0000
     30 O4          6.0390    1.2090    0.8180 O.2       1 NVH1        0.0000
     31 O5          3.8980    2.4010    0.4810 O.2       1 NVH1        0.0000
     32 S1         -0.3130   -2.7200    0.5400 S.O2      1 NVH1        0.0000
     33 S2          4.8580    1.4410    0.0630 S.O2      1 NVH1        0.0000
     34 H1         -2.6810   -4.3470    1.1930 H         1 NVH1        0.0000
     35 H2          2.2510   -3.4720    0.2800 H         1 NVH1        0.0000
     36 H3         -2.8660    0.3200   -2.2330 H         1 NVH1        0.0000
     37 H4         -1.2150    0.9650   -2.3910 H         1 NVH1        0.0000
     38 H5         -0.9350    4.4500    0.7270 H         1 NVH1        0.0000
     39 H6         -4.8940    2.9010    1.1100 H         1 NVH1        0.0000
     40 H7          4.3380    1.6910   -2.2750 H         1 NVH1        0.0000
     41 H8          5.8010    2.5990   -1.8260 H         1 NVH1        0.0000
     42 H9          5.8780    0.8330   -2.0320 H         1 NVH1        0.0000
     43 H10        -5.0800   -3.9260    0.6070 H         1 NVH1        0.0000
     44 H11        -5.6540   -1.9120   -0.6760 H         1 NVH1        0.0000
     45 H12         5.7570   -1.2560    0.4210 H         1 NVH1        0.0000
     46 H13         2.0520    0.7820   -0.1600 H         1 NVH1        0.0000
@<TRIPOS>BOND
     1   28   32 2
     2    1   12 2
     3    1   16 1
     4   12   13 1
     5   29   32 2
     6   16   32 1
     7   26   32 1
     8   14   16 2
     9   13   23 2
    10    3   24 2
    11    2    3 1
    12   17   24 1
    13   30   33 2
    14   14   23 1
    15   14   25 1
    16    2   26 1
    17   15   26 1
    18    2   19 2
    19   17   18 2
    20   18   19 1
    21   18   33 1
    22   11   33 1
    23   31   33 2
    24   15   25 1
    25    4   25 1
    26   15   27 2
    27    9   22 1
    28    4    8 1
    29    8    9 2
    30    9   10 1
    31    7    8 1
    32    5   10 2
    33    7   21 1
    34    6    7 2
    35    5    6 1
    36    5   20 1
    37    1   34 1
    38    3   35 1
    39    4   36 1
    40    4   37 1
    41    6   38 1
    42   10   39 1
    43   11   40 1
    44   11   41 1
    45   11   42 1
    46   12   43 1
    47   13   44 1
    48   17   45 1
    49   19   46 1
@<TRIPOS>SUBSTRUCTURE
     1 NVH1        1 RESIDUE           4 A     NVH     0 ROOT
