# created with PyMOL 2.3.5
@<TRIPOS>MOLECULE
P6G
45 44 1                 
SMALL
USER_CHARGES
@<TRIPOS>ATOM
1	  O1	7.862	-0.247	-0.492	O.3	1	P6G0	0.000	
2	  C2	7.064	-1.301	0.052	C.3	1	P6G0	0.000	
3	  C3	6.147	-0.738	1.139	C.3	1	P6G0	0.000	
4	  O4	5.219	0.177	0.553	O.3	1	P6G0	0.000	
5	  C5	4.311	0.763	1.489	C.3	1	P6G0	0.000	
6	  C6	3.369	1.719	0.754	C.3	1	P6G0	0.000	
7	  O7	2.550	0.978	-0.152	O.3	1	P6G0	0.000	
8	  C8	1.629	1.780	-0.893	C.3	1	P6G0	0.000	
9	  C9	0.809	0.887	-1.826	C.3	1	P6G0	0.000	
10	 O10	0.000	0.002	-1.049	O.3	1	P6G0	0.000	
11	 C11	-0.809	-0.881	-1.829	C.3	1	P6G0	0.000	
12	 C12	-1.629	-1.778	-0.899	C.3	1	P6G0	0.000	
13	 O13	-2.550	-0.977	-0.155	O.3	1	P6G0	0.000	
14	 C14	-3.369	-1.721	0.749	C.3	1	P6G0	0.000	
15	 C15	-4.311	-0.768	1.486	C.3	1	P6G0	0.000	
16	 O16	-5.219	-0.178	0.553	O.3	1	P6G0	0.000	
17	 C17	-6.147	0.734	1.142	C.3	1	P6G0	0.000	
18	 C18	-7.064	1.301	0.056	C.3	1	P6G0	0.000	
19	 O19	-7.862	0.249	-0.491	O.3	1	P6G0	0.000	
20	  H1	8.469	-0.533	-1.189	 H	1	P6G0	0.000	
21	 H21	6.459	-1.744	-0.740	 H	1	P6G0	0.000	
22	 H22	7.713	-2.063	0.482	 H	1	P6G0	0.000	
23	 H31	5.603	-1.554	1.615	 H	1	P6G0	0.000	
24	 H32	6.747	-0.217	1.886	 H	1	P6G0	0.000	
25	 H51	3.729	-0.022	1.971	 H	1	P6G0	0.000	
26	 H52	4.873	1.314	2.243	 H	1	P6G0	0.000	
27	 H61	2.736	2.233	1.478	 H	1	P6G0	0.000	
28	 H62	3.954	2.451	0.199	 H	1	P6G0	0.000	
29	 H81	0.960	2.295	-0.203	 H	1	P6G0	0.000	
30	 H82	2.178	2.514	-1.482	 H	1	P6G0	0.000	
31	 H91	0.170	1.507	-2.454	 H	1	P6G0	0.000	
32	 H92	1.482	0.305	-2.456	 H	1	P6G0	0.000	
33	H111	-1.482	-0.297	-2.457	 H	1	P6G0	0.000	
34	H112	-0.170	-1.499	-2.459	 H	1	P6G0	0.000	
35	H121	-2.178	-2.510	-1.490	 H	1	P6G0	0.000	
36	H122	-0.960	-2.295	-0.211	 H	1	P6G0	0.000	
37	H141	-3.954	-2.452	0.191	 H	1	P6G0	0.000	
38	H142	-2.736	-2.237	1.471	 H	1	P6G0	0.000	
39	H151	-4.873	-1.322	2.238	 H	1	P6G0	0.000	
40	H152	-3.729	0.016	1.971	 H	1	P6G0	0.000	
41	H171	-6.747	0.211	1.887	 H	1	P6G0	0.000	
42	H172	-5.603	1.548	1.620	 H	1	P6G0	0.000	
43	H181	-7.713	2.062	0.489	 H	1	P6G0	0.000	
44	H182	-6.459	1.746	-0.734	 H	1	P6G0	0.000	
45	 H19	-8.469	0.536	-1.187	 H	1	P6G0	0.000	
@<TRIPOS>BOND
1 1 2 1
2 1 20 1
3 2 3 1
4 2 21 1
5 2 22 1
6 3 4 1
7 3 23 1
8 3 24 1
9 4 5 1
10 5 6 1
11 5 25 1
12 5 26 1
13 6 7 1
14 6 27 1
15 6 28 1
16 7 8 1
17 8 9 1
18 8 29 1
19 8 30 1
20 9 10 1
21 9 31 1
22 9 32 1
23 10 11 1
24 11 12 1
25 11 33 1
26 11 34 1
27 12 13 1
28 12 35 1
29 12 36 1
30 13 14 1
31 14 15 1
32 14 37 1
33 14 38 1
34 15 16 1
35 15 39 1
36 15 40 1
37 16 17 1
38 17 18 1
39 17 41 1
40 17 42 1
41 18 19 1
42 18 43 1
43 18 44 1
44 19 45 1
@<TRIPOS>SUBSTRUCTURE
1	P6G0	1	GROUP	1 ****	P6G
