# created with PyMOL 2.3.5
@<TRIPOS>MOLECULE
DI7
30 30 1                 
SMALL
USER_CHARGES
@<TRIPOS>ATOM
1	   C	3.245	-0.140	0.141	C.2	1	DI70	0.000	
2	   N	1.553	1.254	1.190	N.3	1	DI70	0.000	
3	   O	3.947	0.844	0.114	O.co2	1	DI70	0.000	
4	  CA	1.783	-0.013	0.483	C.3	1	DI70	0.000	
5	  CB	0.954	-0.037	-0.803	C.3	1	DI70	0.000	
6	  CD	-0.512	-0.054	-0.455	C.2	1	DI70	0.000	
7	  OH	-4.526	-0.098	0.496	O.3	1	DI70	0.000	
8	  CZ	-3.204	-0.083	0.183	C.2	1	DI70	0.000	
9	 CD1	-1.228	1.129	-0.429	C.2	1	DI70	0.000	
10	 CD2	-1.140	-1.251	-0.169	C.2	1	DI70	0.000	
11	 CE1	-2.572	1.117	-0.111	C.2	1	DI70	0.000	
12	 CE2	-2.484	-1.269	0.150	C.2	1	DI70	0.000	
13	 CE3	-0.542	2.432	-0.747	C.3	1	DI70	0.000	
14	 CE4	-0.358	-2.539	-0.205	C.3	1	DI70	0.000	
15	 OXT	3.767	-1.344	-0.139	O.3	1	DI70	0.000	
16	  HN	1.995	1.247	2.098	 H	1	DI70	0.000	
17	 HNA	1.871	2.038	0.640	 H	1	DI70	0.000	
18	 HXT	4.709	-1.375	-0.357	 H	1	DI70	0.000	
19	  HA	1.486	-0.845	1.122	 H	1	DI70	0.000	
20	  HB	1.177	0.850	-1.395	 H	1	DI70	0.000	
21	 HBA	1.201	-0.930	-1.378	 H	1	DI70	0.000	
22	 HOH	-4.707	-0.004	1.441	 H	1	DI70	0.000	
23	 HE1	-3.131	2.041	-0.090	 H	1	DI70	0.000	
24	 HE2	-2.973	-2.204	0.378	 H	1	DI70	0.000	
25	 HE3	-0.530	2.582	-1.827	 H	1	DI70	0.000	
26	HE3A	-1.080	3.252	-0.272	 H	1	DI70	0.000	
27	HE3B	0.482	2.405	-0.373	 H	1	DI70	0.000	
28	 HE4	0.149	-2.683	0.750	 H	1	DI70	0.000	
29	HE4A	-1.038	-3.372	-0.384	 H	1	DI70	0.000	
30	HE4B	0.380	-2.494	-1.005	 H	1	DI70	0.000	
@<TRIPOS>BOND
1 1 4 1
2 1 3 2
3 1 15 1
4 2 4 1
5 2 16 1
6 2 17 1
7 15 18 1
8 4 5 1
9 4 19 1
10 5 6 1
11 5 20 1
12 5 21 1
13 6 9 2
14 6 10 1
15 7 8 1
16 7 22 1
17 8 11 2
18 8 12 1
19 9 13 1
20 9 11 1
21 10 12 2
22 10 14 1
23 11 23 1
24 12 24 1
25 13 25 1
26 13 26 1
27 13 27 1
28 14 28 1
29 14 29 1
30 14 30 1
@<TRIPOS>SUBSTRUCTURE
1	DI70	1	GROUP	1 ****	DI7
