@<TRIPOS>MOLECULE
2CU
29 32 1 0 0
SMALL
NO_CHARGES


@<TRIPOS>ATOM
      1 C15       104.5160  148.3260  137.8000 C.ar      1 2CU562      0.0000
      2 C16       105.2460  147.5160  136.7640 C.3       1 2CU562      0.0000
      3 C18       102.2710  147.0170  137.7250 C.ar      1 2CU562      0.0000
      4 C20       101.0510  147.0680  138.3860 C.ar      1 2CU562      0.0000
      5 C24        99.8850  146.1590  138.2300 C.2       1 2CU562      0.0000
      6 C22       102.6120  148.8480  139.1360 C.ar      1 2CU562      0.0000
      7 C10       104.3990  151.9360  140.9330 C.3       1 2CU562      0.0000
      8 C01       102.4070  156.0910  144.9330 C.3       1 2CU562      0.0000
      9 N02       103.6200  155.2930  144.7660 N.4       1 2CU562      0.0000
     10 C03       103.2910  153.9160  144.3910 C.3       1 2CU562      0.0000
     11 C04       103.3250  153.7270  142.8920 C.3       1 2CU562      0.0000
     12 N05       104.7060  153.8550  142.4330 N.am      1 2CU562      0.0000
     13 C06       105.4400  154.9030  143.1430 C.3       1 2CU562      0.0000
     14 C07       104.4950  155.9080  143.7650 C.3       1 2CU562      0.0000
     15 C08       105.2640  153.0470  141.5110 C.2       1 2CU562      0.0000
     16 O09       106.4280  153.1700  141.1260 O.2       1 2CU562      0.0000
     17 O11       105.1240  151.1860  139.9680 O.3       1 2CU562      0.0000
     18 C12       104.4820  150.1490  139.3780 C.ar      1 2CU562      0.0000
     19 C13       105.1590  149.3990  138.4190 C.ar      1 2CU562      0.0000
     20 CL1       106.7970  149.7840  137.9840 C.3       1 2CU562      0.0000
     21 C17       103.1950  148.0410  138.1710 C.ar      1 2CU562      0.0000
     22 N19       102.5990  146.1240  136.7720 N.pl3     1 2CU562      0.0000
     23 S21       100.9860  148.3990  139.5100 S.2       1 2CU562      0.0000
     24 N23       103.2290  149.8760  139.7290 N.ar      1 2CU562      0.0000
     25 O25        99.9180  145.2250  137.4300 O.2       1 2CU562      0.0000
     26 N26        98.8270  146.4340  139.0100 N.am      1 2CU562      0.0000
     27 C27        97.6210  145.6440  138.9650 C.3       1 2CU562      0.0000
     28 C28        96.3670  146.3600  138.5960 C.3       1 2CU562      0.0000
     29 C29        96.5920  145.9380  140.0020 C.3       1 2CU562      0.0000
@<TRIPOS>BOND
     1    1    2 1
     2    1   19 ar
     3    1   21 ar
     4    3    4 ar
     5    3   21 ar
     6    3   22 1
     7    4    5 1
     8    4   23 ar
     9    5   25 2
    10    5   26 am
    11    6   21 ar
    12    6   23 ar
    13    6   24 ar
    14    7   15 1
    15    7   17 1
    16    8    9 1
    17    9   10 1
    18    9   14 1
    19   10   11 1
    20   11   12 1
    21   12   13 1
    22   12   15 am
    23   13   14 1
    24   15   16 2
    25   17   18 1
    26   18   19 ar
    27   18   24 ar
    28   19   20 1
    29   26   27 1
    30   27   28 1
    31   27   29 1
    32   28   29 1
@<TRIPOS>SUBSTRUCTURE
     1 2CU562      1 RESIDUE           4 R     2CU     0 ROOT
