@<TRIPOS>MOLECULE
2CU
29 32 1 0 0
SMALL
NO_CHARGES


@<TRIPOS>ATOM
      1 C15       168.2980  155.9180  128.0180 C.ar      1 2CU563      0.0000
      2 C16       167.0710  155.1310  128.5230 C.3       1 2CU563      0.0000
      3 C18       167.2800  158.2800  127.8470 C.ar      1 2CU563      0.0000
      4 C20       167.5500  159.5570  127.5200 C.ar      1 2CU563      0.0000
      5 C24       166.5400  160.7170  127.5800 C.2       1 2CU563      0.0000
      6 C22       169.4460  157.8790  127.3030 C.ar      1 2CU563      0.0000
      7 C10       172.6060  155.7620  126.1390 C.3       1 2CU563      0.0000
      8 C01       176.2070  159.8100  125.3260 C.3       1 2CU563      0.0000
      9 N02       175.6940  159.9100  126.5410 N.4       1 2CU563      0.0000
     10 C03       174.3820  159.8140  126.5440 C.3       1 2CU563      0.0000
     11 C04       173.8480  158.4550  126.0350 C.3       1 2CU563      0.0000
     12 N05       174.6230  157.3500  126.6220 N.am      1 2CU563      0.0000
     13 C06       175.9760  157.5860  127.1490 C.3       1 2CU563      0.0000
     14 C07       176.2650  159.0870  127.3970 C.3       1 2CU563      0.0000
     15 C08       174.0310  156.0000  126.6900 C.2       1 2CU563      0.0000
     16 O09       174.6440  155.0990  127.1660 O.2       1 2CU563      0.0000
     17 O11       171.8100  155.1750  127.1520 O.3       1 2CU563      0.0000
     18 C12       170.6090  155.8870  127.3650 C.ar      1 2CU563      0.0000
     19 C13       169.4670  155.2110  127.8200 C.ar      1 2CU563      0.0000
     20 CL1       169.5290  153.4550  128.1470 Cl        1 2CU563      0.0000
     21 C17       168.2430  157.2750  127.7670 C.ar      1 2CU563      0.0000
     22 N19       165.9200  157.9850  128.2940 N.pl3     1 2CU563      0.0000
     23 S21       169.2520  159.7060  127.0020 S.2       1 2CU563      0.0000
     24 N23       170.5920  157.2130  127.1050 N.ar      1 2CU563      0.0000
     25 O25       166.4180  161.4390  126.6450 O.2       1 2CU563      0.0000
     26 N26       165.7360  160.9230  128.7860 N.am      1 2CU563      0.0000
     27 C27       164.7700  162.0250  128.8500 C.3       1 2CU563      0.0000
     28 C28       165.3610  163.4430  128.8600 C.3       1 2CU563      0.0000
     29 C29       164.7970  162.8410  130.1500 C.3       1 2CU563      0.0000
@<TRIPOS>BOND
     1    1    2 1
     2    1   19 ar
     3    1   21 ar
     4    3    4 ar
     5    3   21 ar
     6    3   22 1
     7    4    5 1
     8    4   23 ar
     9    5   25 2
    10    5   26 am
    11    6   21 ar
    12    6   23 ar
    13    6   24 ar
    14    7   15 1
    15    7   17 1
    16    8    9 1
    17    9   10 1
    18    9   14 1
    19   10   11 1
    20   11   12 1
    21   12   13 1
    22   12   15 am
    23   13   14 1
    24   15   16 2
    25   17   18 1
    26   18   19 ar
    27   18   24 ar
    28   19   20 1
    29   26   27 1
    30   27   28 1
    31   27   29 1
    32   28   29 1
@<TRIPOS>SUBSTRUCTURE
     1 2CU563      1 RESIDUE           4 R     2CU     0 ROOT
