# created with PyMOL 2.3.5
@<TRIPOS>MOLECULE
HTG
45 45 1                 
SMALL
USER_CHARGES
@<TRIPOS>ATOM
1	  C1	-1.496	0.612	0.144	C.3	1	HTG0	0.000	
2	  S1	-0.026	1.470	-0.482	S.3	1	HTG0	0.000	
3	  C2	-2.740	1.455	-0.146	C.3	1	HTG0	0.000	
4	  O2	-2.605	2.735	0.475	O.3	1	HTG0	0.000	
5	  C3	-3.972	0.739	0.419	C.3	1	HTG0	0.000	
6	  O3	-5.157	1.436	0.029	O.3	1	HTG0	0.000	
7	  C4	-4.007	-0.688	-0.141	C.3	1	HTG0	0.000	
8	  O4	-5.062	-1.423	0.484	O.3	1	HTG0	0.000	
9	  C5	-2.668	-1.370	0.147	C.3	1	HTG0	0.000	
10	  O5	-1.614	-0.657	-0.497	O.3	1	HTG0	0.000	
11	  C6	-2.706	-2.806	-0.379	C.3	1	HTG0	0.000	
12	  O6	-1.505	-3.483	-0.003	O.3	1	HTG0	0.000	
13	 C1'	1.271	0.357	0.123	C.3	1	HTG0	0.000	
14	 C2'	2.641	0.893	-0.297	C.3	1	HTG0	0.000	
15	 C3'	3.735	-0.046	0.214	C.3	1	HTG0	0.000	
16	 C4'	5.105	0.490	-0.207	C.3	1	HTG0	0.000	
17	 C5'	6.199	-0.450	0.304	C.3	1	HTG0	0.000	
18	 C6'	7.569	0.087	-0.116	C.3	1	HTG0	0.000	
19	 C7'	8.663	-0.853	0.395	C.3	1	HTG0	0.000	
20	  H1	-1.400	0.466	1.220	 H	1	HTG0	0.000	
21	  H2	-2.854	1.582	-1.222	 H	1	HTG0	0.000	
22	 HO2	-1.820	3.150	0.092	 H	1	HTG0	0.000	
23	  H3	-3.909	0.703	1.507	 H	1	HTG0	0.000	
24	 HO3	-5.092	2.326	0.402	 H	1	HTG0	0.000	
25	  H4	-4.175	-0.653	-1.217	 H	1	HTG0	0.000	
26	 HO4	-5.885	-0.960	0.278	 H	1	HTG0	0.000	
27	  H5	-2.492	-1.383	1.223	 H	1	HTG0	0.000	
28	 H61	-3.565	-3.326	0.046	 H	1	HTG0	0.000	
29	 H62	-2.791	-2.793	-1.466	 H	1	HTG0	0.000	
30	 HO6	-1.570	-4.382	-0.354	 H	1	HTG0	0.000	
31	H1'1	1.124	-0.637	-0.300	 H	1	HTG0	0.000	
32	H1'2	1.222	0.299	1.211	 H	1	HTG0	0.000	
33	H2'1	2.788	1.886	0.126	 H	1	HTG0	0.000	
34	H2'2	2.690	0.951	-1.385	 H	1	HTG0	0.000	
35	H3'1	3.588	-1.040	-0.210	 H	1	HTG0	0.000	
36	H3'2	3.686	-0.104	1.301	 H	1	HTG0	0.000	
37	H4'1	5.252	1.483	0.217	 H	1	HTG0	0.000	
38	H4'2	5.154	0.547	-1.294	 H	1	HTG0	0.000	
39	H5'1	6.052	-1.443	-0.119	 H	1	HTG0	0.000	
40	H5'2	6.150	-0.507	1.392	 H	1	HTG0	0.000	
41	H6'1	7.716	1.080	0.307	 H	1	HTG0	0.000	
42	H6'2	7.618	0.144	-1.204	 H	1	HTG0	0.000	
43	H7'1	8.614	-0.910	1.482	 H	1	HTG0	0.000	
44	H7'2	8.516	-1.846	-0.029	 H	1	HTG0	0.000	
45	H7'3	9.639	-0.471	0.095	 H	1	HTG0	0.000	
@<TRIPOS>BOND
1 1 2 1
2 1 3 1
3 1 10 1
4 1 20 1
5 2 13 1
6 3 4 1
7 3 5 1
8 3 21 1
9 4 22 1
10 5 6 1
11 5 7 1
12 5 23 1
13 6 24 1
14 7 8 1
15 7 9 1
16 7 25 1
17 8 26 1
18 9 10 1
19 9 11 1
20 9 27 1
21 11 12 1
22 11 28 1
23 11 29 1
24 12 30 1
25 13 14 1
26 13 31 1
27 13 32 1
28 14 15 1
29 14 33 1
30 14 34 1
31 15 16 1
32 15 35 1
33 15 36 1
34 16 17 1
35 16 37 1
36 16 38 1
37 17 18 1
38 17 39 1
39 17 40 1
40 18 19 1
41 18 41 1
42 18 42 1
43 19 43 1
44 19 44 1
45 19 45 1
@<TRIPOS>SUBSTRUCTURE
1	HTG0	1	GROUP	1 ****	HTG
