@<TRIPOS>MOLECULE
WI5
32 37 1 0 0
SMALL
NO_CHARGES


@<TRIPOS>ATOM
      1 C1        100.7750  110.8690  128.1420 C.ar      1 WI5424      0.0000
      2 C10        98.0410  105.7440  123.7700 C.ar      1 WI5424      0.0000
      3 C11        97.0520  105.0910  122.9860 C.ar      1 WI5424      0.0000
      4 C12        96.2040  105.7920  122.0830 C.ar      1 WI5424      0.0000
      5 C13        96.3510  107.3080  121.9490 C.ar      1 WI5424      0.0000
      6 C14        96.0670  109.3920  120.7720 C.3       1 WI5424      0.0000
      7 C15        96.8120  110.1070  121.9090 C.3       1 WI5424      0.0000
      8 C16        95.8620  111.0030  122.7140 C.3       1 WI5424      0.0000
      9 C17        95.3480  113.0820  121.6460 C.ar      1 WI5424      0.0000
     10 C18        94.4210  113.8470  120.7180 C.ar      1 WI5424      0.0000
     11 C19        92.5650  112.5040  121.5720 C.ar      1 WI5424      0.0000
     12 C2        102.1740  111.6470  128.1740 C.ar      1 WI5424      0.0000
     13 C20        93.5850  111.6330  122.2940 C.ar      1 WI5424      0.0000
     14 C21       101.4210  108.5810  125.3410 C.ar      1 WI5424      0.0000
     15 C22       102.5120  108.2440  124.3450 C.ar      1 WI5424      0.0000
     16 C23       103.6330  108.8870  124.3640 C.ar      1 WI5424      0.0000
     17 C24       103.8610  109.9790  125.3910 C.ar      1 WI5424      0.0000
     18 C25       102.8950  110.2900  126.2470 C.ar      1 WI5424      0.0000
     19 C26       101.6190  109.5530  126.2310 C.ar      1 WI5424      0.0000
     20 C27       100.5690  109.8830  127.2370 C.ar      1 WI5424      0.0000
     21 C3        103.1310  111.3530  127.2630 C.ar      1 WI5424      0.0000
     22 C4        100.0740  107.8520  125.2720 C.2       1 WI5424      0.0000
     23 C5         98.9850  108.1600  124.2240 C.ar      1 WI5424      0.0000
     24 C6         98.6010  109.4180  123.6520 C.ar      1 WI5424      0.0000
     25 C7         99.2140  110.7910  123.9560 C.3       1 WI5424      0.0000
     26 C8         97.2360  107.8570  122.6770 C.ar      1 WI5424      0.0000
     27 C9         98.1340  107.1180  123.6290 C.ar      1 WI5424      0.0000
     28 N1         97.5680  109.1770  122.7400 N.ar      1 WI5424      0.0000
     29 N2         94.9290  111.7770  121.9190 N.ar      1 WI5424      0.0000
     30 O1         99.8640  107.0000  126.0690 O.2       1 WI5424      0.0000
     31 O2         95.5720  108.1080  121.0980 O.3       1 WI5424      0.0000
     32 O3         93.0580  113.8380  121.2360 O.2       1 WI5424      0.0000
@<TRIPOS>BOND
     1    1   12 ar
     2    1   20 ar
     3    2    3 ar
     4    2   27 ar
     5    3    4 ar
     6    4    5 ar
     7    5   26 ar
     8    5   31 1
     9    6    7 1
    10    6   31 1
    11    7    8 1
    12    7   28 1
    13    8   29 1
    14    9   10 ar
    15    9   29 ar
    16   10   32 ar
    17   11   13 ar
    18   11   32 ar
    19   12   21 ar
    20   13   29 ar
    21   14   15 ar
    22   14   19 ar
    23   14   22 1
    24   15   16 ar
    25   16   17 ar
    26   17   18 ar
    27   18   19 ar
    28   18   21 ar
    29   19   20 ar
    30   22   23 1
    31   22   30 2
    32   23   24 ar
    33   23   27 ar
    34   24   25 1
    35   24   28 ar
    36   26   27 ar
    37   26   28 ar
@<TRIPOS>SUBSTRUCTURE
     1 WI5424      1 RESIDUE           4 R     WI5     0 ROOT
