# created with PyMOL 2.3.5
@<TRIPOS>MOLECULE
NLE
22 21 1                 
SMALL
USER_CHARGES
@<TRIPOS>ATOM
1	   N	0.720	1.773	0.288	N.3	1	NLE0	0.000	
2	  CA	0.763	0.319	0.492	C.3	1	NLE0	0.000	
3	   C	2.084	-0.218	0.003	C.2	1	NLE0	0.000	
4	   O	2.747	0.426	-0.776	O.co2	1	NLE0	0.000	
5	 OXT	2.524	-1.411	0.433	O.3	1	NLE0	0.000	
6	  CB	-0.375	-0.340	-0.289	C.3	1	NLE0	0.000	
7	  CG	-1.718	0.110	0.290	C.3	1	NLE0	0.000	
8	  CD	-2.857	-0.549	-0.491	C.3	1	NLE0	0.000	
9	  CE	-4.200	-0.099	0.087	C.3	1	NLE0	0.000	
10	   H	0.822	2.004	-0.689	 H	1	NLE0	0.000	
11	 HN2	-0.129	2.166	0.666	 H	1	NLE0	0.000	
12	  HA	0.652	0.097	1.553	 H	1	NLE0	0.000	
13	 HXT	3.377	-1.713	0.092	 H	1	NLE0	0.000	
14	 HB2	-0.315	-0.046	-1.337	 H	1	NLE0	0.000	
15	 HB3	-0.290	-1.424	-0.211	 H	1	NLE0	0.000	
16	 HG2	-1.779	-0.184	1.338	 H	1	NLE0	0.000	
17	 HG3	-1.803	1.194	0.211	 H	1	NLE0	0.000	
18	 HD2	-2.796	-0.255	-1.539	 H	1	NLE0	0.000	
19	 HD3	-2.772	-1.633	-0.413	 H	1	NLE0	0.000	
20	 HE1	-4.284	0.985	0.009	 H	1	NLE0	0.000	
21	 HE2	-5.011	-0.568	-0.469	 H	1	NLE0	0.000	
22	 HE3	-4.260	-0.393	1.135	 H	1	NLE0	0.000	
@<TRIPOS>BOND
1 1 2 1
2 1 10 1
3 1 11 1
4 2 3 1
5 2 6 1
6 2 12 1
7 3 4 2
8 3 5 1
9 5 13 1
10 6 7 1
11 6 14 1
12 6 15 1
13 7 8 1
14 7 16 1
15 7 17 1
16 8 9 1
17 8 18 1
18 8 19 1
19 9 20 1
20 9 21 1
21 9 22 1
@<TRIPOS>SUBSTRUCTURE
1	NLE0	1	GROUP	1 ****	NLE
