@<TRIPOS>MOLECULE
LDP
11 11 1 0 0
SMALL
NO_CHARGES


@<TRIPOS>ATOM
      1 C7          2.9460   -3.2020  -22.3510 C.3       1 LDP452      0.0000
      2 C1          3.7990   -2.0620  -21.8110 C.ar      1 LDP452      0.0000
      3 C4          5.3330   -0.0060  -20.7980 C.ar      1 LDP452      0.0000
      4 C2          4.5560   -1.2850  -22.6660 C.ar      1 LDP452      0.0000
      5 C6          3.8080   -1.8140  -20.4530 C.ar      1 LDP452      0.0000
      6 C5          4.5750   -0.7850  -19.9460 C.ar      1 LDP452      0.0000
      7 C3          5.3240   -0.2560  -22.1550 C.ar      1 LDP452      0.0000
      8 O1          6.0960    0.5370  -23.0070 O.3       1 LDP452      0.0000
      9 O2          6.1100    1.0350  -20.2850 O.3       1 LDP452      0.0000
     10 C8          2.7360   -4.2760  -21.2910 C.3       1 LDP452      0.0000
     11 N1          1.3840   -4.7960  -21.3630 N.4       1 LDP452      0.0000
@<TRIPOS>BOND
     1    1    2 1
     2    1   10 1
     3    2    4 ar
     4    2    5 ar
     5    3    6 ar
     6    3    7 ar
     7    3    9 1
     8    4    7 ar
     9    5    6 ar
    10    7    8 1
    11   10   11 1
@<TRIPOS>SUBSTRUCTURE
     1 LDP452      1 RESIDUE           4 R     LDP     0 ROOT
