# created with PyMOL 2.3.5
@<TRIPOS>MOLECULE
8VS
82 85 1 0 0
SMALL
USER_CHARGES


@<TRIPOS>ATOM
      1 N          -0.7630    1.1900    0.6720 N.pl3     1 8VS1        0.0000
      2 CA          0.3700    0.7920   -0.1660 C.3       1 8VS1        0.0000
      3 C           1.5830    1.6020    0.2120 C.2       1 8VS1        0.0000
      4 O           1.5080    2.4310    1.0940 O.2       1 8VS1        0.0000
      5 CB          0.0290    1.0390   -1.6370 C.3       1 8VS1        0.0000
      6 CG         -1.1070    0.1380   -2.0480 C.2       1 8VS1        0.0000
      7 CD1        -0.8380   -1.1210   -2.5550 C.2       1 8VS1        0.0000
      8 CD2        -2.4140    0.5710   -1.9110 C.2       1 8VS1        0.0000
      9 CE1        -1.8730   -1.9510   -2.9330 C.2       1 8VS1        0.0000
     10 CE2        -3.4580   -0.2500   -2.2840 C.2       1 8VS1        0.0000
     11 CZ         -3.1930   -1.5190   -2.8030 C.2       1 8VS1        0.0000
     12 CAA        -4.7750    2.9680   -0.6620 C.2       1 8VS1        0.0000
     13 CAB        -4.8570    4.1470    0.0570 C.2       1 8VS1        0.0000
     14 CAC        -4.3170    4.2200    1.3270 C.2       1 8VS1        0.0000
     15 CAD        -3.6950    3.1150    1.8790 C.2       1 8VS1        0.0000
     16 CAE        -3.6140    1.9370    1.1600 C.2       1 8VS1        0.0000
     17 CAF        -4.1590    1.8620   -0.1080 C.2       1 8VS1        0.0000
     18 CAG        -2.9370    0.7330    1.7620 C.3       1 8VS1        0.0000
     19 CAH        -3.9350   -0.4230    1.8510 C.3       1 8VS1        0.0000
     20 CAI        -1.7730    0.3260    0.8950 C.2       1 8VS1        0.0000
     21 CAJ        -3.2480   -1.6450    2.4620 C.3       1 8VS1        0.0000
     22 CAK        -4.2470   -2.8010    2.5510 C.3       1 8VS1        0.0000
     23 CAL        -5.4270   -2.3870    3.4320 C.3       1 8VS1        0.0000
     24 CAM        -6.1150   -1.1640    2.8210 C.3       1 8VS1        0.0000
     25 CAN        -5.1160   -0.0090    2.7310 C.3       1 8VS1        0.0000
     26 CBB        -4.3070   -2.4030   -3.2060 C.2       1 8VS1        0.0000
     27 CBE         3.9310    2.1940   -0.0640 C.3       1 8VS1        0.0000
     28 CBF         3.9090    3.5060   -0.8050 C.2       1 8VS1        0.0000
     29 CBH         4.8810    5.6740   -1.3440 C.3       1 8VS1        0.0000
     30 CBJ         5.1970    1.4200   -0.4350 C.3       1 8VS1        0.0000
     31 CBK         5.2810    0.1660    0.3970 C.2       1 8VS1        0.0000
     32 CBL         5.9250    0.1890    1.6200 C.2       1 8VS1        0.0000
     33 CBM         6.0020   -0.9610    2.3840 C.2       1 8VS1        0.0000
     34 CBN         5.4350   -2.1350    1.9240 C.2       1 8VS1        0.0000
     35 CBO         4.7900   -2.1580    0.7010 C.2       1 8VS1        0.0000
     36 CBP         4.7090   -1.0060   -0.0600 C.2       1 8VS1        0.0000
     37 NAS         2.7520    1.4060   -0.4310 N.pl3     1 8VS1        0.0000
     38 NBC        -5.5820   -1.9820   -3.0780 N.pl3     1 8VS1        0.0000
     39 NBG         4.9020    4.3990   -0.6230 N.pl3     1 8VS1        0.0000
     40 OAQ        -1.7460   -0.7800    0.3970 O.2       1 8VS1        0.0000
     41 OBD        -4.0740   -3.5090   -3.6520 O.2       1 8VS1        0.0000
     42 OBI         2.9990    3.7580   -1.5650 O.2       1 8VS1        0.0000
     43 BR1         4.0150   -3.7640    0.0720 Br        1 8VS1        0.0000
     44 H1         -0.7850    2.0740    1.0700 H         1 8VS1        0.0000
     45 H2          0.5800   -0.2670   -0.0150 H         1 8VS1        0.0000
     46 H3         -0.2660    2.0800   -1.7710 H         1 8VS1        0.0000
     47 H4          0.9030    0.8270   -2.2530 H         1 8VS1        0.0000
     48 H5          0.1850   -1.4540   -2.6560 H         1 8VS1        0.0000
     49 H6         -2.6170    1.5530   -1.5090 H         1 8VS1        0.0000
     50 H7         -1.6610   -2.9330   -3.3300 H         1 8VS1        0.0000
     51 H8         -4.4770    0.0890   -2.1760 H         1 8VS1        0.0000
     52 H9         -5.1970    2.9110   -1.6540 H         1 8VS1        0.0000
     53 H10        -5.3420    5.0100   -0.3750 H         1 8VS1        0.0000
     54 H11        -4.3800    5.1410    1.8880 H         1 8VS1        0.0000
     55 H12        -3.2730    3.1730    2.8710 H         1 8VS1        0.0000
     56 H13        -4.0950    0.9420   -0.6690 H         1 8VS1        0.0000
     57 H14        -2.5760    0.9800    2.7600 H         1 8VS1        0.0000
     58 H15        -4.2960   -0.6690    0.8530 H         1 8VS1        0.0000
     59 H16        -2.4060   -1.9400    1.8350 H         1 8VS1        0.0000
     60 H17        -2.8870   -1.3980    3.4610 H         1 8VS1        0.0000
     61 H18        -4.6070   -3.0470    1.5530 H         1 8VS1        0.0000
     62 H19        -3.7570   -3.6720    2.9860 H         1 8VS1        0.0000
     63 H20        -6.1390   -3.2100    3.4950 H         1 8VS1        0.0000
     64 H21        -5.0670   -2.1400    4.4300 H         1 8VS1        0.0000
     65 H22        -6.4760   -1.4110    1.8220 H         1 8VS1        0.0000
     66 H23        -6.9570   -0.8690    3.4480 H         1 8VS1        0.0000
     67 H24        -4.7560    0.2380    3.7300 H         1 8VS1        0.0000
     68 H25        -5.6060    0.8620    2.2960 H         1 8VS1        0.0000
     69 H26         3.9220    2.3830    1.0100 H         1 8VS1        0.0000
     70 H27         5.7580    6.2610   -1.0710 H         1 8VS1        0.0000
     71 H28         4.8900    5.4850   -2.4180 H         1 8VS1        0.0000
     72 H29         3.9790    6.2260   -1.0800 H         1 8VS1        0.0000
     73 H30         5.1640    1.1530   -1.4910 H         1 8VS1        0.0000
     74 H31         6.0720    2.0410   -0.2440 H         1 8VS1        0.0000
     75 H32         6.3690    1.1060    1.9790 H         1 8VS1        0.0000
     76 H33         6.5060   -0.9420    3.3390 H         1 8VS1        0.0000
     77 H34         5.4960   -3.0330    2.5200 H         1 8VS1        0.0000
     78 H35         4.2020   -1.0230   -1.0140 H         1 8VS1        0.0000
     79 H36         2.8120    0.7430   -1.1370 H         1 8VS1        0.0000
     80 H37        -5.7680   -1.1000   -2.7220 H         1 8VS1        0.0000
     81 H38        -6.3120   -2.5630   -3.3420 H         1 8VS1        0.0000
     82 H39         5.6300    4.1980   -0.0150 H         1 8VS1        0.0000
@<TRIPOS>BOND
     1    1   20 1
     2    1   44 1
     3    1    2 1
     4    2   45 1
     5    2    3 1
     6    3    4 2
     7    2    5 1
     8    5    6 1
     9    5   46 1
    10    5   47 1
    11    6    8 2
    12    6    7 1
    13    7    9 2
    14    7   48 1
    15    8   10 1
    16    8   49 1
    17    9   11 1
    18    9   50 1
    19   10   51 1
    20   10   11 2
    21   11   26 1
    22   12   13 2
    23   12   52 1
    24   13   14 1
    25   13   53 1
    26   14   54 1
    27   14   15 2
    28   15   55 1
    29   15   16 1
    30   12   17 1
    31   16   17 2
    32   17   56 1
    33   16   18 1
    34   18   19 1
    35   18   57 1
    36   19   21 1
    37   19   58 1
    38   18   20 1
    39   21   22 1
    40   21   59 1
    41   21   60 1
    42   22   61 1
    43   22   62 1
    44   22   23 1
    45   23   63 1
    46   23   64 1
    47   23   24 1
    48   24   65 1
    49   24   66 1
    50   19   25 1
    51   24   25 1
    52   25   67 1
    53   25   68 1
    54   26   41 2
    55   27   37 1
    56   27   69 1
    57   27   28 1
    58   28   42 2
    59   29   39 1
    60   29   70 1
    61   29   71 1
    62   29   72 1
    63   27   30 1
    64   30   31 1
    65   30   73 1
    66   30   74 1
    67   31   36 2
    68   31   32 1
    69   32   33 2
    70   32   75 1
    71   33   34 1
    72   33   76 1
    73   34   35 2
    74   34   77 1
    75   35   43 1
    76   35   36 1
    77   36   78 1
    78    3   37 1
    79   37   79 1
    80   26   38 1
    81   38   80 1
    82   38   81 1
    83   28   39 1
    84   39   82 1
    85   20   40 2
@<TRIPOS>SUBSTRUCTURE
     1 8VS1        2 RESIDUE           4 A     8VS     0 ROOT
