# created with PyMOL 2.3.5
@<TRIPOS>MOLECULE
Y00
45 46 1                 
SMALL
USER_CHARGES
@<TRIPOS>ATOM
1	  O3	8.127	0.940	0.409	O.3	1	Y000	0.000	
2	 C16	6.804	0.726	0.188	C.2	1	Y000	0.000	
3	 C15	6.355	0.401	-1.084	C.2	1	Y000	0.000	
4	 C14	5.009	0.183	-1.306	C.2	1	Y000	0.000	
5	 C17	5.899	0.827	1.235	C.2	1	Y000	0.000	
6	 C18	4.555	0.608	1.008	C.2	1	Y000	0.000	
7	 C13	4.109	0.290	-0.261	C.2	1	Y000	0.000	
8	 C12	2.641	0.053	-0.506	C.3	1	Y000	0.000	
9	 C11	2.321	-1.428	-0.294	C.3	1	Y000	0.000	
10	  C9	0.831	-1.669	-0.543	C.3	1	Y000	0.000	
11	 C10	0.534	-3.167	-0.453	C.3	1	Y000	0.000	
12	  N1	0.044	-0.952	0.470	N.3	1	Y000	0.000	
13	  C8	-1.305	-0.651	-0.029	C.3	1	Y000	0.000	
14	  C1	-2.093	0.094	1.051	C.3	1	Y000	0.000	
15	  C2	-3.477	0.403	0.539	C.2	1	Y000	0.000	
16	  C7	-4.504	-0.501	0.739	C.2	1	Y000	0.000	
17	  C6	-5.776	-0.218	0.270	C.2	1	Y000	0.000	
18	  O1	-6.788	-1.105	0.467	O.3	1	Y000	0.000	
19	  C5	-6.017	0.977	-0.401	C.2	1	Y000	0.000	
20	  O2	-7.265	1.260	-0.863	O.3	1	Y000	0.000	
21	  C4	-4.984	1.878	-0.598	C.2	1	Y000	0.000	
22	  C3	-3.717	1.592	-0.123	C.2	1	Y000	0.000	
23	  H3	8.402	1.860	0.292	 H	1	Y000	0.000	
24	 H15	7.058	0.318	-1.900	 H	1	Y000	0.000	
25	 H17	6.247	1.075	2.227	 H	1	Y000	0.000	
26	 H14	4.660	-0.070	-2.296	 H	1	Y000	0.000	
27	 H18	3.850	0.686	1.823	 H	1	Y000	0.000	
28	H121	2.055	0.654	0.189	 H	1	Y000	0.000	
29	H122	2.394	0.335	-1.530	 H	1	Y000	0.000	
30	H111	2.907	-2.030	-0.989	 H	1	Y000	0.000	
31	H112	2.569	-1.710	0.729	 H	1	Y000	0.000	
32	  H9	0.565	-1.305	-1.535	 H	1	Y000	0.000	
33	H101	-0.528	-3.338	-0.630	 H	1	Y000	0.000	
34	H102	1.118	-3.699	-1.204	 H	1	Y000	0.000	
35	H103	0.800	-3.531	0.540	 H	1	Y000	0.000	
36	  H1	0.002	-1.474	1.332	 H	1	Y000	0.000	
37	H81C	-1.232	-0.028	-0.920	 H	1	Y000	0.000	
38	H82C	-1.817	-1.581	-0.276	 H	1	Y000	0.000	
39	H11C	-2.166	-0.529	1.942	 H	1	Y000	0.000	
40	H12C	-1.581	1.024	1.298	 H	1	Y000	0.000	
41	  H7	-4.314	-1.427	1.261	 H	1	Y000	0.000	
42	  HA	-2.913	2.297	-0.273	 H	1	Y000	0.000	
43	  HB	-7.276	-0.970	1.290	 H	1	Y000	0.000	
44	  H2	-7.821	1.733	-0.230	 H	1	Y000	0.000	
45	  H4	-5.168	2.806	-1.120	 H	1	Y000	0.000	
@<TRIPOS>BOND
1 1 2 1
2 2 3 1
3 2 5 2
4 3 4 2
5 4 7 1
6 5 6 1
7 6 7 2
8 7 8 1
9 8 9 1
10 9 10 1
11 10 11 1
12 10 12 1
13 12 13 1
14 13 14 1
15 14 15 1
16 15 16 1
17 15 22 2
18 16 17 2
19 17 18 1
20 17 19 1
21 19 20 1
22 19 21 2
23 21 22 1
24 1 23 1
25 3 24 1
26 5 25 1
27 4 26 1
28 6 27 1
29 8 28 1
30 8 29 1
31 9 30 1
32 9 31 1
33 10 32 1
34 11 33 1
35 11 34 1
36 11 35 1
37 12 36 1
38 13 37 1
39 13 38 1
40 14 39 1
41 14 40 1
42 16 41 1
43 22 42 1
44 18 43 1
45 20 44 1
46 21 45 1
@<TRIPOS>SUBSTRUCTURE
1	Y000	1	GROUP	1 ****	Y00
