# created with PyMOL 2.3.5
@<TRIPOS>MOLECULE
9XT
39 42 1 0 0
SMALL
USER_CHARGES


@<TRIPOS>ATOM
      1 N1          5.6620    0.1920    2.1050 N.pl3     1 9XT1        0.0000
      2 N3         -0.0390    1.3720   -1.5740 N.2       1 9XT1        0.0000
      3 C4          2.8050   -0.2420   -0.8920 C.2       1 9XT1        0.0000
      4 C5          3.0310   -1.2740    0.0000 C.2       1 9XT1        0.0000
      5 C6          3.9780   -1.1340    0.9960 C.2       1 9XT1        0.0000
      6 C7          4.7040    0.0460    1.1000 C.2       1 9XT1        0.0000
      7 C8          1.7700   -0.3990   -1.9770 C.3       1 9XT1        0.0000
      8 C10        -2.6770   -0.3230    0.0960 C.2       1 9XT1        0.0000
      9 C13        -3.8230    0.5420    0.4190 C.2       1 9XT1        0.0000
     10 C15        -5.8790    1.3040    0.7810 C.2       1 9XT1        0.0000
     11 C1          5.2590    2.3630    0.3110 C.3       1 9XT1        0.0000
     12 C11        -1.6550   -2.4000    0.1400 C.2       1 9XT1        0.0000
     13 C12        -0.4790   -0.6810   -0.8480 C.2       1 9XT1        0.0000
     14 C14        -5.1340    0.1690    0.4140 C.2       1 9XT1        0.0000
     15 C16        -4.9990    2.3040    0.9930 C.2       1 9XT1        0.0000
     16 C2          4.4740    1.0810    0.2020 C.2       1 9XT1        0.0000
     17 C3          3.5210    0.9360   -0.7880 C.2       1 9XT1        0.0000
     18 C9         -1.5430    0.1970   -0.5690 C.2       1 9XT1        0.0000
     19 N2          0.4720    0.0680   -1.4850 N.pl3     1 9XT1        0.0000
     20 N4         -1.2070    1.4110   -1.0340 N.2       1 9XT1        0.0000
     21 N5         -2.6830   -1.6140    0.4260 N.2       1 9XT1        0.0000
     22 N6         -0.5740   -1.9550   -0.4810 N.2       1 9XT1        0.0000
     23 N7         -1.7130   -3.7340    0.5050 N.pl3     1 9XT1        0.0000
     24 O1         -3.7590    1.8410    0.7750 O.3       1 9XT1        0.0000
     25 H1          6.1680    1.0160    2.1770 H         1 9XT1        0.0000
     26 H2          5.8190   -0.5300    2.7340 H         1 9XT1        0.0000
     27 H3          2.4660   -2.1910   -0.0810 H         1 9XT1        0.0000
     28 H4          4.1530   -1.9400    1.6920 H         1 9XT1        0.0000
     29 H5          2.0630    0.1900   -2.8460 H         1 9XT1        0.0000
     30 H6          1.6960   -1.4490   -2.2580 H         1 9XT1        0.0000
     31 H7         -6.9530    1.3630    0.8750 H         1 9XT1        0.0000
     32 H8          6.1650    2.2860   -0.2900 H         1 9XT1        0.0000
     33 H9          4.6520    3.1930   -0.0510 H         1 9XT1        0.0000
     34 H10         5.5280    2.5360    1.3530 H         1 9XT1        0.0000
     35 H11        -5.5250   -0.8090    0.1750 H         1 9XT1        0.0000
     36 H12        -5.2510    3.3120    1.2890 H         1 9XT1        0.0000
     37 H13         3.3430    1.7400   -1.4860 H         1 9XT1        0.0000
     38 H14        -2.4960   -4.0780    0.9620 H         1 9XT1        0.0000
     39 H15        -0.9700   -4.3250    0.3040 H         1 9XT1        0.0000
@<TRIPOS>BOND
     1    1    6 1
     2   11   16 1
     3    6   16 2
     4    5    6 1
     5   16   17 1
     6    4    5 2
     7    3   17 2
     8    3    4 1
     9    3    7 1
    10    7   19 1
    11    2   19 1
    12   13   19 1
    13    2   20 2
    14   13   22 2
    15   13   18 1
    16   12   22 1
    17   18   20 1
    18    8   18 2
    19   12   23 1
    20   12   21 2
    21    8   21 1
    22    8    9 1
    23    9   14 2
    24    9   24 1
    25   10   14 1
    26   15   24 1
    27   10   15 2
    28    1   25 1
    29    1   26 1
    30    4   27 1
    31    5   28 1
    32    7   29 1
    33    7   30 1
    34   10   31 1
    35   11   32 1
    36   11   33 1
    37   11   34 1
    38   14   35 1
    39   15   36 1
    40   17   37 1
    41   23   38 1
    42   23   39 1
@<TRIPOS>SUBSTRUCTURE
     1 9XT1        1 RESIDUE           4 A     9XT     0 ROOT
