# created with PyMOL 2.3.5
@<TRIPOS>MOLECULE
6DY
54 58 1                 
SMALL
USER_CHARGES
@<TRIPOS>ATOM
1	 C10	4.779	-0.391	0.744	C.3	1	6DY0	0.000	
2	 C13	4.304	2.146	-0.572	C.3	1	6DY0	0.000	
3	 C15	8.293	-0.028	1.072	C.2	1	6DY0	0.000	
4	 C17	9.519	-1.673	-0.162	C.2	1	6DY0	0.000	
5	 C21	-3.957	0.650	-0.027	C.2	1	6DY0	0.000	
6	 C23	-5.992	-0.119	0.031	C.2	1	6DY0	0.000	
7	 C18	8.430	-1.863	-0.990	C.2	1	6DY0	0.000	
8	 C19	7.273	-1.132	-0.792	C.2	1	6DY0	0.000	
9	 C16	9.451	-0.755	0.870	C.2	1	6DY0	0.000	
10	 C12	5.621	1.395	-0.783	C.3	1	6DY0	0.000	
11	 C14	7.203	-0.218	0.243	C.2	1	6DY0	0.000	
12	 C11	5.939	0.570	0.468	C.3	1	6DY0	0.000	
13	 N01	-2.590	-2.698	-0.179	N.pl3	1	6DY0	0.000	
14	 C02	-2.674	-1.331	-0.136	C.2	1	6DY0	0.000	
15	 N03	-1.579	-0.594	-0.158	N.2	1	6DY0	0.000	
16	 C04	-1.653	0.739	-0.120	C.2	1	6DY0	0.000	
17	 N05	-0.492	1.483	-0.150	N.pl3	1	6DY0	0.000	
18	 C06	0.808	0.811	-0.220	C.3	1	6DY0	0.000	
19	 C07	1.923	1.857	-0.241	C.3	1	6DY0	0.000	
20	 N08	3.227	1.183	-0.312	N.3	1	6DY0	0.000	
21	 C09	3.487	0.412	0.911	C.3	1	6DY0	0.000	
22	 N20	-2.820	1.359	-0.057	N.2	1	6DY0	0.000	
23	 N22	-5.235	0.986	0.033	N.2	1	6DY0	0.000	
24	 N24	-5.212	-1.182	-0.030	N.2	1	6DY0	0.000	
25	 N25	-3.892	-0.718	-0.069	N.pl3	1	6DY0	0.000	
26	 C26	-7.468	-0.145	0.090	C.2	1	6DY0	0.000	
27	 C27	-8.283	0.941	0.154	C.2	1	6DY0	0.000	
28	 C28	-9.605	0.455	0.193	C.2	1	6DY0	0.000	
29	 C29	-9.532	-0.890	0.151	C.2	1	6DY0	0.000	
30	 O30	-8.240	-1.249	0.084	O.3	1	6DY0	0.000	
31	  H1	4.673	-1.082	-0.092	 H	1	6DY0	0.000	
32	  H2	4.980	-0.951	1.657	 H	1	6DY0	0.000	
33	  H3	4.403	2.819	0.280	 H	1	6DY0	0.000	
34	  H4	4.068	2.723	-1.466	 H	1	6DY0	0.000	
35	  H5	8.238	0.686	1.881	 H	1	6DY0	0.000	
36	  H6	10.422	-2.244	-0.317	 H	1	6DY0	0.000	
37	  H7	8.482	-2.583	-1.794	 H	1	6DY0	0.000	
38	  H8	6.422	-1.281	-1.439	 H	1	6DY0	0.000	
39	  H9	10.302	-0.606	1.518	 H	1	6DY0	0.000	
40	 H10	5.528	0.732	-1.642	 H	1	6DY0	0.000	
41	 H11	6.424	2.111	-0.961	 H	1	6DY0	0.000	
42	 H12	6.071	1.236	1.321	 H	1	6DY0	0.000	
43	 H13	-3.397	-3.235	-0.163	 H	1	6DY0	0.000	
44	 H14	-1.722	-3.129	-0.226	 H	1	6DY0	0.000	
45	 H15	-0.536	2.452	-0.125	 H	1	6DY0	0.000	
46	 H16	0.931	0.166	0.650	 H	1	6DY0	0.000	
47	 H17	0.857	0.209	-1.128	 H	1	6DY0	0.000	
48	 H18	1.801	2.502	-1.112	 H	1	6DY0	0.000	
49	 H19	1.874	2.459	0.666	 H	1	6DY0	0.000	
50	 H21	2.656	-0.271	1.093	 H	1	6DY0	0.000	
51	 H22	3.589	1.093	1.755	 H	1	6DY0	0.000	
52	 H23	-7.976	1.977	0.172	 H	1	6DY0	0.000	
53	 H24	-10.506	1.048	0.246	 H	1	6DY0	0.000	
54	 H25	-10.374	-1.566	0.165	 H	1	6DY0	0.000	
@<TRIPOS>BOND
1 3 9 2
2 4 9 1
3 3 11 1
4 1 21 1
5 1 12 1
6 20 21 1
7 4 7 2
8 11 12 1
9 8 11 2
10 10 12 1
11 19 20 1
12 18 19 1
13 2 20 1
14 7 8 1
15 2 10 1
16 17 18 1
17 16 17 1
18 16 22 2
19 15 16 1
20 5 22 1
21 14 15 2
22 5 23 2
23 5 25 1
24 6 23 1
25 14 25 1
26 13 14 1
27 24 25 1
28 6 24 2
29 6 26 1
30 26 27 2
31 26 30 1
32 27 28 1
33 29 30 1
34 28 29 2
35 1 31 1
36 1 32 1
37 2 33 1
38 2 34 1
39 3 35 1
40 4 36 1
41 7 37 1
42 8 38 1
43 9 39 1
44 10 40 1
45 10 41 1
46 12 42 1
47 13 43 1
48 13 44 1
49 17 45 1
50 18 46 1
51 18 47 1
52 19 48 1
53 19 49 1
54 21 50 1
55 21 51 1
56 27 52 1
57 28 53 1
58 29 54 1
@<TRIPOS>SUBSTRUCTURE
1	6DY0	1	GROUP	1 ****	6DY
