@<TRIPOS>MOLECULE
KNT
59 63 1 0 0 
SMALL
USER_CHARGES


@<TRIPOS>ATOM
  1 N       39.3550    27.3330    59.7310 N.am  1 KNT  -0.5470 
  2 H       39.9121    26.8418    59.0465 H     1 KNT   0.3700 
  3 C       39.1250    28.6530    59.4890 C.2   1 KNT   0.5438 
  4 O       38.5100    29.3790    60.2650 O.2   1 KNT  -0.5700 
  5 N1      42.2560    24.0590    58.2020 N.2   1 KNT  -0.6188 
  6 N3      43.5160    22.2910    58.1420 N.pl3 1 KNT  -0.2500 
  7 H3      44.1907    21.6086    57.8270 H     1 KNT   0.0000 
  8 C4      38.0810    25.0190    63.0110 C.ar  1 KNT  -0.1500 
  9 H4      37.7633    24.4300    63.8587 H     1 KNT   0.1500 
 10 C5      39.0820    24.5330    62.1660 C.ar  1 KNT   0.0862 
 11 C6      39.7580    23.2130    62.3160 C.2   1 KNT   0.4694 
 12 C7      40.7440    22.7950    61.4140 C.2   1 KNT  -0.1356 
 13 H7      41.2383    21.8433    61.5423 H     1 KNT   0.1500 
 14 C8      41.0810    23.6400    60.3330 C.2   1 KNT   0.1097 
 15 C10     39.4880    25.3160    61.0750 C.ar  1 KNT   0.0825 
 16 C13     40.8750    29.0070    56.1190 C.ar  1 KNT  -0.1500 
 17 H13     41.4449    28.4089    55.4235 H     1 KNT   0.1500 
 18 C15     40.9250    32.1590    54.2670 C.3   1 KNT   0.1200 
 19 H151    39.9472    32.2500    53.7940 H     1 KNT   0.0800 
 20 H152    40.9606    32.7934    55.1527 H     1 KNT   0.0800 
 21 C17     41.9010    31.9200    51.9350 C.3   1 KNT  -0.1600 
 22 H171    40.8644    31.6253    51.7714 H     1 KNT   0.0800 
 23 H172    42.5331    31.0321    51.9501 H     1 KNT   0.0800 
 24 C20     40.4690    33.2280    49.1230 C.ar  1 KNT  -0.1500 
 25 H20     40.5943    32.2208    48.7539 H     1 KNT   0.1500 
 26 C21     39.5210    34.0590    48.5440 C.ar  1 KNT  -0.1500 
 27 H21     38.9166    33.6970    47.7254 H     1 KNT   0.1500 
 28 C22     39.3470    35.3470    49.0100 C.ar  1 KNT  -0.1500 
 29 H22     38.6126    35.9945    48.5542 H     1 KNT   0.1500 
 30 C24     41.0660    34.9750    50.6430 C.ar  1 KNT  -0.1500 
 31 H24     41.6605    35.3399    51.4675 H     1 KNT   0.1500 
 32 C26     39.4070    30.5410    57.9040 C.ar  1 KNT  -0.1500 
 33 H26     38.8348    31.1411    58.5960 H     1 KNT   0.1500 
 34 O1      39.3940    22.4630    63.2710 O.2   1 KNT  -0.5700 
 35 C9      42.0560    23.3290    59.3070 C.2   1 KNT   0.7045 
 36 N4      42.8240    22.2300    59.2920 N.2   1 KNT  -0.6188 
 37 N2      43.1740    23.3810    57.4930 N.2   1 KNT  -0.2500 
 38 O2      40.4580    24.8600    60.1990 O.3   1 KNT  -0.1592 
 39 C3      37.4930    26.2490    62.7710 C.ar  1 KNT  -0.1500 
 40 H3      36.7153    26.6074    63.4291 H     1 KNT   0.1500 
 41 C2      37.8920    27.0240    61.6960 C.ar  1 KNT  -0.1500 
 42 H2      37.4254    27.9816    61.5182 H     1 KNT   0.1500 
 43 C1      38.8980    26.5680    60.8410 C.ar  1 KNT   0.1170 
 44 C11     39.6620    29.2010    58.2020 C.ar  1 KNT   0.0862 
 45 C25     39.8780    31.1110    56.7330 C.ar  1 KNT  -0.1500 
 46 H25     39.6730    32.1488    56.5152 H     1 KNT   0.1500 
 47 C14     40.6160    30.3430    55.8380 C.ar  1 KNT   0.0825 
 48 C12     40.4010    28.4430    57.2930 C.ar  1 KNT  -0.1500 
 49 H12     40.6061    27.4044    57.5068 H     1 KNT   0.1500 
 50 O3      41.1450    30.7910    54.6500 O.3   1 KNT  -0.3625 
 51 C16     41.9950    32.5940    53.2950 C.3   1 KNT  -0.1600 
 52 H161    42.9677    32.3602    53.7277 H     1 KNT   0.0800 
 53 H162    41.9109    33.6712    53.1510 H     1 KNT   0.0800 
 54 C18     42.3390    32.7990    50.7630 C.3   1 KNT  -0.0165 
 55 H181    42.7080    32.1459    49.9722 H     1 KNT   0.0800 
 56 H182    43.1474    33.4429    51.1092 H     1 KNT   0.0800 
 57 C19     41.2600    33.6800    50.1750 C.ar  1 KNT  -0.1435 
 58 C23     40.1170    35.8030    50.0620 C.ar  1 KNT  -0.1500 
 59 H23     39.9797    36.8078    50.4335 H     1 KNT   0.1500 
@<TRIPOS>BOND
  1   1   2  1   
  2   1   3  am  
  3   1  43  1   
  4   3   4  2   
  5   3  44  1   
  6   5  35  1   
  7   5  37  2   
  8   6   7  1   
  9   6  36  1   
 10   6  37  1   
 11   8   9  1   
 12   8  10  ar  
 13   8  39  ar  
 14  10  11  1   
 15  10  15  ar  
 16  11  12  1   
 17  11  34  2   
 18  12  13  1   
 19  12  14  2   
 20  14  35  1   
 21  14  38  1   
 22  15  38  1   
 23  15  43  ar  
 24  16  17  1   
 25  16  47  ar  
 26  16  48  ar  
 27  18  19  1   
 28  18  20  1   
 29  18  50  1   
 30  18  51  1   
 31  21  22  1   
 32  21  23  1   
 33  21  51  1   
 34  21  54  1   
 35  24  25  1   
 36  24  26  ar  
 37  24  57  ar  
 38  26  27  1   
 39  26  28  ar  
 40  28  29  1   
 41  28  58  ar  
 42  30  31  1   
 43  30  57  ar  
 44  30  58  ar  
 45  32  33  1   
 46  32  44  ar  
 47  32  45  ar  
 48  35  36  2   
 49  39  40  1   
 50  39  41  ar  
 51  41  42  1   
 52  41  43  ar  
 53  44  48  ar  
 54  45  46  1   
 55  45  47  ar  
 56  47  50  1   
 57  48  49  1   
 58  51  52  1   
 59  51  53  1   
 60  54  55  1   
 61  54  56  1   
 62  54  57  1   
 63  58  59  1   
@<TRIPOS>SUBSTRUCTURE
  1 KNT  48 GROUP 4 L **** 0

# MOE 2019.01 (io_trps.svl 2018.10)
