# created with PyMOL 2.3.5
@<TRIPOS>MOLECULE
KNT
60 64 1 0 0
SMALL
USER_CHARGES


@<TRIPOS>ATOM
      1 N1         -4.9380   -3.2290    0.0860 N.pl3     1 KNT1        0.0000
      2 N3         -6.6010   -4.4960    0.2790 N.2       1 KNT1        0.0000
      3 C4         -6.1510    3.1720    0.0070 C.2       1 KNT1        0.0000
      4 C5         -6.1650    1.7780    0.0510 C.2       1 KNT1        0.0000
      5 C6         -7.4280    1.0270    0.1930 C.2       1 KNT1        0.0000
      6 C7         -7.3440   -0.3870    0.2270 C.2       1 KNT1        0.0000
      7 C8         -6.1270   -0.9880    0.1310 C.2       1 KNT1        0.0000
      8 C10        -4.9650    1.0570   -0.0400 C.2       1 KNT1        0.0000
      9 C13         1.1070   -0.9820   -0.8690 C.2       1 KNT1        0.0000
     10 C15         4.6630   -0.3170   -0.2860 C.3       1 KNT1        0.0000
     11 C17         7.1530   -0.4530   -0.1420 C.3       1 KNT1        0.0000
     12 C20        10.1080   -0.7440    1.2840 C.2       1 KNT1        0.0000
     13 C21        11.2580   -0.0800    1.6680 C.2       1 KNT1        0.0000
     14 C22        11.9240    0.7280    0.7660 C.2       1 KNT1        0.0000
     15 C24        10.2880    0.2120   -0.9040 C.2       1 KNT1        0.0000
     16 C26         1.0850    1.5600    0.2540 C.2       1 KNT1        0.0000
     17 O1         -8.5010    1.6010    0.2770 O.2       1 KNT1        0.0000
     18 C9         -6.0590   -2.4600    0.1680 C.2       1 KNT1        0.0000
     19 N4         -7.0740   -3.2980    0.2880 N.2       1 KNT1        0.0000
     20 N2         -5.3210   -4.4590    0.1530 N.2       1 KNT1        0.0000
     21 O2         -4.9870   -0.2920    0.0020 O.3       1 KNT1        0.0000
     22 C3         -4.9530    3.8390   -0.1320 C.2       1 KNT1        0.0000
     23 C2         -3.7640    3.1330   -0.2230 C.2       1 KNT1        0.0000
     24 C1         -3.7600    1.7490   -0.1750 C.2       1 KNT1        0.0000
     25 N          -2.5530    1.0460   -0.2670 N.pl3     1 KNT1        0.0000
     26 C          -1.3980    1.6410    0.0930 C.2       1 KNT1        0.0000
     27 O          -1.4150    2.7490    0.5920 O.2       1 KNT1        0.0000
     28 C11        -0.1140    0.9460   -0.1190 C.2       1 KNT1        0.0000
     29 C25         2.2810    0.9090    0.0550 C.2       1 KNT1        0.0000
     30 C14         2.2970   -0.3650   -0.5010 C.2       1 KNT1        0.0000
     31 C12        -0.0930   -0.3330   -0.6830 C.2       1 KNT1        0.0000
     32 O3          3.4780   -1.0080   -0.6860 O.3       1 KNT1        0.0000
     33 C16         5.8840   -1.1930   -0.5690 C.3       1 KNT1        0.0000
     34 C18         8.3750   -1.3290   -0.4250 C.3       1 KNT1        0.0000
     35 C19         9.6250   -0.6000   -0.0030 C.2       1 KNT1        0.0000
     36 C23        11.4410    0.8710   -0.5210 C.2       1 KNT1        0.0000
     37 H1         -4.0260   -2.9120   -0.0100 H         1 KNT1        0.0000
     38 H2         -7.0760    3.7260    0.0780 H         1 KNT1        0.0000
     39 H3         -8.2390   -0.9820    0.3300 H         1 KNT1        0.0000
     40 H4          1.1230   -1.9700   -1.3050 H         1 KNT1        0.0000
     41 H5          4.7460    0.6140   -0.8460 H         1 KNT1        0.0000
     42 H6          4.6130   -0.0970    0.7800 H         1 KNT1        0.0000
     43 H7          7.2370    0.4780   -0.7010 H         1 KNT1        0.0000
     44 H8          7.1030   -0.2330    0.9250 H         1 KNT1        0.0000
     45 H9          9.5900   -1.3790    1.9870 H         1 KNT1        0.0000
     46 H10        11.6360   -0.1930    2.6740 H         1 KNT1        0.0000
     47 H11        12.8220    1.2470    1.0670 H         1 KNT1        0.0000
     48 H12         9.9100    0.3240   -1.9100 H         1 KNT1        0.0000
     49 H13         1.0730    2.5450    0.6980 H         1 KNT1        0.0000
     50 H14        -4.9420    4.9180   -0.1710 H         1 KNT1        0.0000
     51 H15        -2.8320    3.6670   -0.3320 H         1 KNT1        0.0000
     52 H16        -2.5480    0.1320   -0.5910 H         1 KNT1        0.0000
     53 H17         3.2080    1.3830    0.3430 H         1 KNT1        0.0000
     54 H18        -1.0170   -0.8110   -0.9720 H         1 KNT1        0.0000
     55 H19         5.8010   -2.1250   -0.0100 H         1 KNT1        0.0000
     56 H20         5.9340   -1.4140   -1.6360 H         1 KNT1        0.0000
     57 H21         8.2920   -2.2610    0.1350 H         1 KNT1        0.0000
     58 H22         8.4250   -1.5500   -1.4910 H         1 KNT1        0.0000
     59 H23        11.9610    1.5030   -1.2260 H         1 KNT1        0.0000
     60 HN         -8.0479   -3.0440    0.3719 H         1 KNT1        0.0000
@<TRIPOS>BOND
     1   13   14 2
     2   12   13 1
     3   14   36 1
     4   12   35 2
     5   15   36 2
     6   15   35 1
     7   34   35 1
     8   11   34 1
     9   11   33 1
    10   10   33 1
    11   10   32 1
    12   30   32 1
    13    9   30 2
    14   29   30 1
    15    9   31 1
    16   16   29 2
    17   28   31 2
    18    2   20 2
    19    1   20 1
    20   16   28 1
    21    2   19 1
    22   26   28 1
    23    1   18 1
    24   18   19 2
    25    7   18 1
    26   25   26 1
    27   26   27 2
    28   24   25 1
    29    7   21 1
    30    8   21 1
    31    6    7 2
    32    8   24 2
    33   23   24 1
    34    4    8 1
    35    5    6 1
    36   22   23 2
    37    4    5 1
    38    3    4 2
    39    5   17 2
    40    3   22 1
    41    1   37 1
    42    3   38 1
    43    6   39 1
    44    9   40 1
    45   10   41 1
    46   10   42 1
    47   11   43 1
    48   11   44 1
    49   12   45 1
    50   13   46 1
    51   14   47 1
    52   15   48 1
    53   16   49 1
    54   22   50 1
    55   23   51 1
    56   25   52 1
    57   29   53 1
    58   31   54 1
    59   33   55 1
    60   33   56 1
    61   34   57 1
    62   34   58 1
    63   36   59 1
    64   60   19 1
@<TRIPOS>SUBSTRUCTURE
     1 KNT1        1 RESIDUE           4 A     KNT     0 ROOT
