# created with PyMOL 2.3.5
@<TRIPOS>MOLECULE
6AT
51 53 1                 
SMALL
USER_CHARGES
@<TRIPOS>ATOM
1	 OAI	7.284	-3.312	-0.153	O.3	1	6AT0	0.000	
2	 PBE	7.209	-1.925	-0.968	P.3	1	6AT0	0.000	
3	 OAH	8.290	-1.024	-0.510	O.co2	1	6AT0	0.000	
4	 OAC	7.384	-2.216	-2.542	O.3	1	6AT0	0.000	
5	 OAS	5.782	-1.227	-0.707	O.3	1	6AT0	0.000	
6	 PBG	5.172	-0.343	0.493	P.3	1	6AT0	0.000	
7	 OAK	6.161	0.678	0.906	O.co2	1	6AT0	0.000	
8	 OAE	4.831	-1.298	1.743	O.3	1	6AT0	0.000	
9	 OAT	3.826	0.386	-0.008	O.3	1	6AT0	0.000	
10	 PBF	2.989	1.663	0.503	P.3	1	6AT0	0.000	
11	 OAJ	3.695	3.012	-0.020	O.3	1	6AT0	0.000	
12	 OAD	2.951	1.668	1.982	O.co2	1	6AT0	0.000	
13	 O5'	1.487	1.585	-0.072	O.3	1	6AT0	0.000	
14	 C5'	0.467	2.519	0.287	C.3	1	6AT0	0.000	
15	 C4'	-0.833	2.157	-0.435	C.3	1	6AT0	0.000	
16	 O4'	-1.379	0.931	0.098	O.3	1	6AT0	0.000	
17	 C3'	-1.916	3.224	-0.160	C.3	1	6AT0	0.000	
18	 O3'	-1.994	4.149	-1.246	O.3	1	6AT0	0.000	
19	 C2'	-3.224	2.410	-0.046	C.3	1	6AT0	0.000	
20	 O2'	-4.151	2.807	-1.058	O.3	1	6AT0	0.000	
21	 C1'	-2.777	0.948	-0.265	C.3	1	6AT0	0.000	
22	  N9	-3.540	0.045	0.601	N.pl3	1	6AT0	0.000	
23	  C8	-3.184	-0.365	1.853	C.2	1	6AT0	0.000	
24	  N7	-4.092	-1.163	2.333	N.2	1	6AT0	0.000	
25	  C5	-5.086	-1.315	1.424	C.2	1	6AT0	0.000	
26	  C4	-4.746	-0.537	0.305	C.2	1	6AT0	0.000	
27	  N3	-5.567	-0.513	-0.741	N.2	1	6AT0	0.000	
28	  C2	-6.691	-1.212	-0.731	C.2	1	6AT0	0.000	
29	  S2	-7.745	-1.147	-2.141	S.3	1	6AT0	0.000	
30	 CAA	-9.074	-2.247	-1.590	C.3	1	6AT0	0.000	
31	  N1	-7.050	-1.960	0.305	N.2	1	6AT0	0.000	
32	  C6	-6.294	-2.034	1.394	C.2	1	6AT0	0.000	
33	  N6	-6.677	-2.817	2.469	N.pl3	1	6AT0	0.000	
34	  H1	6.604	-3.952	-0.403	 H	1	6AT0	0.000	
35	  H2	8.223	-2.638	-2.772	 H	1	6AT0	0.000	
36	  H3	4.188	-1.992	1.544	 H	1	6AT0	0.000	
37	  H4	3.754	3.076	-0.983	 H	1	6AT0	0.000	
38	  H5	0.306	2.484	1.365	 H	1	6AT0	0.000	
39	  H6	0.775	3.523	-0.002	 H	1	6AT0	0.000	
40	  H7	-0.657	2.062	-1.506	 H	1	6AT0	0.000	
41	  H8	-1.707	3.748	0.773	 H	1	6AT0	0.000	
42	  H9	-2.659	4.841	-1.126	 H	1	6AT0	0.000	
43	 H10	-3.665	2.532	0.943	 H	1	6AT0	0.000	
44	 H11	-4.419	3.735	-1.004	 H	1	6AT0	0.000	
45	 H12	-2.901	0.666	-1.311	 H	1	6AT0	0.000	
46	 H13	-2.281	-0.072	2.368	 H	1	6AT0	0.000	
47	 H14	-9.832	-2.319	-2.370	 H	1	6AT0	0.000	
48	 H15	-8.665	-3.237	-1.387	 H	1	6AT0	0.000	
49	 H16	-9.524	-1.846	-0.682	 H	1	6AT0	0.000	
50	 H17	-7.506	-3.319	2.432	 H	1	6AT0	0.000	
51	 H18	-6.116	-2.863	3.259	 H	1	6AT0	0.000	
@<TRIPOS>BOND
1 29 30 1
2 28 29 1
3 28 31 2
4 31 32 1
5 27 28 1
6 32 33 1
7 25 32 2
8 26 27 2
9 25 26 1
10 24 25 1
11 22 26 1
12 23 24 2
13 22 23 1
14 21 22 1
15 16 21 1
16 15 16 1
17 19 21 1
18 14 15 1
19 15 17 1
20 13 14 1
21 10 13 1
22 19 20 1
23 17 19 1
24 10 12 2
25 17 18 1
26 9 10 1
27 10 11 1
28 6 7 2
29 6 9 1
30 6 8 1
31 5 6 1
32 2 5 1
33 2 3 2
34 2 4 1
35 1 2 1
36 1 34 1
37 4 35 1
38 8 36 1
39 11 37 1
40 14 38 1
41 14 39 1
42 15 40 1
43 17 41 1
44 18 42 1
45 19 43 1
46 20 44 1
47 21 45 1
48 23 46 1
49 30 47 1
50 30 48 1
51 30 49 1
52 33 50 1
53 33 51 1
@<TRIPOS>SUBSTRUCTURE
1	6AT0	1	GROUP	1 ****	6AT
