# created with PyMOL 2.3.5
@<TRIPOS>MOLECULE
NVK
37 40 1 0 0
SMALL
USER_CHARGES


@<TRIPOS>ATOM
      1 C1          7.9500   -0.0570   -0.2590 C.3       1 NVK1        0.0000
      2 C10        -2.7060    0.1790   -0.3990 C.2       1 NVK1        0.0000
      3 C11        -3.9870   -0.3210   -0.0600 C.2       1 NVK1        0.0000
      4 C12        -5.0730    0.5840    0.0040 C.2       1 NVK1        0.0000
      5 C13        -3.7010    2.3570   -0.5590 C.2       1 NVK1        0.0000
      6 C14        -2.5830    1.5360   -0.6440 C.2       1 NVK1        0.0000
      7 C15        -6.3480    0.0870    0.3400 C.2       1 NVK1        0.0000
      8 C16        -6.4760   -1.2500    0.5890 C.2       1 NVK1        0.0000
      9 C17        -5.3620   -2.0830    0.5070 C.2       1 NVK1        0.0000
     10 C2          6.4550   -0.0460   -0.0700 C.2       1 NVK1        0.0000
     11 C3          4.4820    0.4750    0.6490 C.2       1 NVK1        0.0000
     12 C4          4.3450   -0.5550   -0.2940 C.2       1 NVK1        0.0000
     13 C5          3.0850   -1.0460   -0.6000 C.2       1 NVK1        0.0000
     14 C6          1.9710   -0.5150    0.0290 C.2       1 NVK1        0.0000
     15 C7          2.1120    0.5080    0.9650 C.2       1 NVK1        0.0000
     16 C8          3.3490    0.9990    1.2730 C.2       1 NVK1        0.0000
     17 C9         -0.3630   -0.1750   -0.2890 C.2       1 NVK1        0.0000
     18 N1          5.8140    0.7430    0.7380 N.2       1 NVK1        0.0000
     19 N2          0.6970   -1.0070   -0.2780 N.pl3     1 NVK1        0.0000
     20 N3         -1.6040   -0.6660   -0.4760 N.pl3     1 NVK1        0.0000
     21 N4         -4.8840    1.8820   -0.2500 N.2       1 NVK1        0.0000
     22 N5         -4.1770   -1.6160    0.1940 N.2       1 NVK1        0.0000
     23 O1          5.5940   -0.8480   -0.7180 O.3       1 NVK1        0.0000
     24 O2         -0.2000    1.0190   -0.1290 O.2       1 NVK1        0.0000
     25 H3          8.2210    0.6410   -1.0510 H         1 NVK1        0.0000
     26 H1          8.4350    0.2430    0.6700 H         1 NVK1        0.0000
     27 H2          8.2750   -1.0610   -0.5310 H         1 NVK1        0.0000
     28 H9         -3.5920    3.4140   -0.7520 H         1 NVK1        0.0000
     29 H10        -1.6210    1.9550   -0.9010 H         1 NVK1        0.0000
     30 H11        -7.2020    0.7460    0.4000 H         1 NVK1        0.0000
     31 H12        -7.4400   -1.6610    0.8500 H         1 NVK1        0.0000
     32 H13        -5.4770   -3.1380    0.7070 H         1 NVK1        0.0000
     33 H4          2.9730   -1.8380   -1.3250 H         1 NVK1        0.0000
     34 H5          1.2370    0.9150    1.4490 H         1 NVK1        0.0000
     35 H6          3.4490    1.7920    2.0000 H         1 NVK1        0.0000
     36 H7          0.5770   -1.9480   -0.4820 H         1 NVK1        0.0000
     37 H8         -1.7290   -1.6090   -0.6660 H         1 NVK1        0.0000
@<TRIPOS>BOND
     1   15   16 2
     2   11   16 1
     3   11   18 1
     4   10   18 2
     5   14   15 1
     6   11   12 2
     7   17   24 2
     8    5    6 2
     9    5   21 1
    10    2    6 1
    11    1   10 1
    12   10   23 1
    13   14   19 1
    14   13   14 2
    15   17   19 1
    16   17   20 1
    17   12   23 1
    18   12   13 1
    19    4   21 2
    20    2   20 1
    21    2    3 2
    22    3    4 1
    23    4    7 1
    24    3   22 1
    25    7    8 2
    26    9   22 2
    27    8    9 1
    28    1   25 1
    29    1   26 1
    30    1   27 1
    31    5   28 1
    32    6   29 1
    33    7   30 1
    34    8   31 1
    35    9   32 1
    36   13   33 1
    37   15   34 1
    38   16   35 1
    39   19   36 1
    40   20   37 1
@<TRIPOS>SUBSTRUCTURE
     1 NVK1        1 RESIDUE           4 A     NVK     0 ROOT
