# created with PyMOL 2.3.5
@<TRIPOS>MOLECULE
DGA
120 119 1               
SMALL
USER_CHARGES
@<TRIPOS>ATOM
1	 CA1	-8.973	12.692	-4.691	C.2	1	DGA0	0.000	
2	 CA2	-9.973	13.301	-5.647	C.3	1	DGA0	0.000	
3	 CA3	-11.033	14.126	-4.917	C.3	1	DGA0	0.000	
4	 CA4	-12.010	14.770	-5.903	C.3	1	DGA0	0.000	
5	 CA5	-13.052	15.667	-5.228	C.3	1	DGA0	0.000	
6	 CA6	-13.984	16.369	-6.220	C.3	1	DGA0	0.000	
7	 CA7	-15.022	17.225	-5.490	C.3	1	DGA0	0.000	
8	 CA8	-15.991	17.946	-6.432	C.3	1	DGA0	0.000	
9	 CA9	-16.790	17.052	-7.386	C.3	1	DGA0	0.000	
10	 CAA	-17.738	16.088	-6.668	C.3	1	DGA0	0.000	
11	 CBA	-18.526	15.241	-7.671	C.3	1	DGA0	0.000	
12	 CCA	-19.512	14.274	-7.007	C.3	1	DGA0	0.000	
13	 CDA	-20.280	13.410	-8.011	C.3	1	DGA0	0.000	
14	 CEA	-21.258	12.435	-7.346	C.3	1	DGA0	0.000	
15	 CFA	-22.008	11.551	-8.346	C.3	1	DGA0	0.000	
16	 CGA	-23.020	10.650	-7.634	C.3	1	DGA0	0.000	
17	 CHA	-23.784	9.726	-8.585	C.3	1	DGA0	0.000	
18	 CIA	-24.809	8.847	-7.886	C.3	1	DGA0	0.000	
19	 OA1	-8.647	13.168	-3.613	O.co2	1	DGA0	0.000	
20	 CB1	-8.919	8.345	-4.258	C.2	1	DGA0	0.000	
21	 CB2	-10.381	8.171	-4.599	C.3	1	DGA0	0.000	
22	 CB3	-11.206	7.751	-3.383	C.3	1	DGA0	0.000	
23	 CB4	-12.689	7.621	-3.737	C.3	1	DGA0	0.000	
24	 CB5	-13.574	7.272	-2.536	C.3	1	DGA0	0.000	
25	 CB6	-15.065	7.214	-2.875	C.3	1	DGA0	0.000	
26	 CB7	-15.896	6.830	-1.648	C.3	1	DGA0	0.000	
27	 CB8	-17.399	6.748	-1.929	C.3	1	DGA0	0.000	
28	 CB9	-18.072	8.052	-2.367	C.3	1	DGA0	0.000	
29	 CAB	-19.587	7.927	-2.550	C.3	1	DGA0	0.000	
30	 CBB	-20.205	9.265	-2.962	C.3	1	DGA0	0.000	
31	 CCB	-21.727	9.204	-3.134	C.3	1	DGA0	0.000	
32	 CDB	-22.340	10.537	-3.571	C.3	1	DGA0	0.000	
33	 CEB	-23.860	10.473	-3.754	C.3	1	DGA0	0.000	
34	 CFB	-24.472	11.798	-4.217	C.3	1	DGA0	0.000	
35	 CGB	-25.997	11.697	-4.314	C.3	1	DGA0	0.000	
36	 CHB	-26.661	12.988	-4.795	C.3	1	DGA0	0.000	
37	 CIB	-28.178	12.901	-4.868	C.3	1	DGA0	0.000	
38	 OB1	-8.425	8.160	-3.154	O.co2	1	DGA0	0.000	
39	 OG1	-8.499	11.529	-5.230	O.3	1	DGA0	0.000	
40	 CG1	-7.536	10.830	-4.435	C.3	1	DGA0	0.000	
41	 CG2	-7.096	9.559	-5.154	C.3	1	DGA0	0.000	
42	 OG2	-8.246	8.740	-5.380	O.3	1	DGA0	0.000	
43	 CG3	-6.469	9.873	-6.506	C.3	1	DGA0	0.000	
44	 OXT	-6.054	8.655	-7.116	O.3	1	DGA0	0.000	
45	HA21	-10.455	12.488	-6.202	 H	1	DGA0	0.000	
46	HA22	-9.427	13.940	-6.351	 H	1	DGA0	0.000	
47	HA31	-11.573	13.477	-4.218	 H	1	DGA0	0.000	
48	HA32	-10.545	14.904	-4.317	 H	1	DGA0	0.000	
49	HA41	-12.517	13.990	-6.485	 H	1	DGA0	0.000	
50	HA42	-11.446	15.381	-6.618	 H	1	DGA0	0.000	
51	HA51	-13.643	15.075	-4.520	 H	1	DGA0	0.000	
52	HA52	-12.520	16.425	-4.640	 H	1	DGA0	0.000	
53	HA61	-13.395	17.001	-6.895	 H	1	DGA0	0.000	
54	HA62	-14.495	15.620	-6.833	 H	1	DGA0	0.000	
55	HA71	-14.504	17.985	-4.892	 H	1	DGA0	0.000	
56	HA72	-15.581	16.606	-4.779	 H	1	DGA0	0.000	
57	HA81	-16.693	18.531	-5.824	 H	1	DGA0	0.000	
58	HA82	-15.427	18.672	-7.032	 H	1	DGA0	0.000	
59	HA91	-16.107	16.489	-8.033	 H	1	DGA0	0.000	
60	HA92	-17.374	17.702	-8.049	 H	1	DGA0	0.000	
61	HAT1	-17.162	15.431	-6.009	 H	1	DGA0	0.000	
62	HAT2	-18.434	16.656	-6.040	 H	1	DGA0	0.000	
63	HAE1	-19.094	15.905	-8.334	 H	1	DGA0	0.000	
64	HAE2	-17.832	14.678	-8.307	 H	1	DGA0	0.000	
65	HAW1	-20.227	14.865	-6.421	 H	1	DGA0	0.000	
66	HAW2	-18.969	13.639	-6.299	 H	1	DGA0	0.000	
67	HAH1	-20.852	14.061	-8.683	 H	1	DGA0	0.000	
68	HAH2	-19.581	12.843	-8.635	 H	1	DGA0	0.000	
69	HAF1	-20.719	11.807	-6.627	 H	1	DGA0	0.000	
70	HAF2	-21.985	13.021	-6.770	 H	1	DGA0	0.000	
71	HAN1	-22.521	12.189	-9.074	 H	1	DGA0	0.000	
72	HAN2	-21.299	10.926	-8.900	 H	1	DGA0	0.000	
73	HAS1	-22.492	10.026	-6.902	 H	1	DGA0	0.000	
74	HAS2	-23.732	11.265	-7.070	 H	1	DGA0	0.000	
75	HAV1	-23.061	9.079	-9.096	 H	1	DGA0	0.000	
76	HAV2	-24.282	10.319	-9.362	 H	1	DGA0	0.000	
77	HAG1	-25.252	8.145	-8.600	 H	1	DGA0	0.000	
78	HAG2	-25.623	9.440	-7.459	 H	1	DGA0	0.000	
79	HAG3	-24.345	8.265	-7.083	 H	1	DGA0	0.000	
80	HB21	-10.461	7.408	-5.381	 H	1	DGA0	0.000	
81	HB22	-10.756	9.124	-4.989	 H	1	DGA0	0.000	
82	HB31	-10.824	6.797	-3.002	 H	1	DGA0	0.000	
83	HB32	-11.080	8.487	-2.580	 H	1	DGA0	0.000	
84	HB41	-12.819	6.866	-4.521	 H	1	DGA0	0.000	
85	HB42	-13.042	8.573	-4.154	 H	1	DGA0	0.000	
86	HB51	-13.253	6.313	-2.110	 H	1	DGA0	0.000	
87	HB52	-13.412	8.031	-1.761	 H	1	DGA0	0.000	
88	HB61	-15.395	8.190	-3.252	 H	1	DGA0	0.000	
89	HB62	-15.231	6.482	-3.671	 H	1	DGA0	0.000	
90	HB71	-15.740	7.579	-0.861	 H	1	DGA0	0.000	
91	HB72	-15.537	5.879	-1.239	 H	1	DGA0	0.000	
92	HB81	-17.564	5.987	-2.702	 H	1	DGA0	0.000	
93	HB82	-17.908	6.383	-1.027	 H	1	DGA0	0.000	
94	HB91	-17.615	8.417	-3.294	 H	1	DGA0	0.000	
95	HB92	-17.865	8.812	-1.603	 H	1	DGA0	0.000	
96	HBT1	-19.802	7.175	-3.315	 H	1	DGA0	0.000	
97	HBT2	-20.043	7.583	-1.614	 H	1	DGA0	0.000	
98	HBE1	-19.978	10.017	-2.195	 H	1	DGA0	0.000	
99	HBE2	-19.744	9.616	-3.893	 H	1	DGA0	0.000	
100	HBW1	-22.167	8.904	-2.174	 H	1	DGA0	0.000	
101	HBW2	-21.974	8.419	-3.857	 H	1	DGA0	0.000	
102	HBH1	-22.119	11.300	-2.814	 H	1	DGA0	0.000	
103	HBH2	-21.882	10.876	-4.507	 H	1	DGA0	0.000	
104	HBF1	-24.111	9.679	-4.468	 H	1	DGA0	0.000	
105	HBF2	-24.308	10.188	-2.794	 H	1	DGA0	0.000	
106	HBN1	-24.193	12.588	-3.511	 H	1	DGA0	0.000	
107	HBN2	-24.068	12.076	-5.197	 H	1	DGA0	0.000	
108	HBS1	-26.258	10.895	-5.016	 H	1	DGA0	0.000	
109	HBS2	-26.412	11.411	-3.339	 H	1	DGA0	0.000	
110	HBV1	-26.277	13.224	-5.795	 H	1	DGA0	0.000	
111	HBV2	-26.375	13.821	-4.142	 H	1	DGA0	0.000	
112	HBG1	-28.586	13.816	-5.308	 H	1	DGA0	0.000	
113	HBG2	-28.622	12.784	-3.876	 H	1	DGA0	0.000	
114	HBG3	-28.493	12.057	-5.490	 H	1	DGA0	0.000	
115	HG11	-6.692	11.503	-4.255	 H	1	DGA0	0.000	
116	HG12	-8.012	10.597	-3.478	 H	1	DGA0	0.000	
117	 HG2	-6.407	8.973	-4.536	 H	1	DGA0	0.000	
118	HG31	-5.586	10.511	-6.395	 H	1	DGA0	0.000	
119	HG32	-7.190	10.358	-7.172	 H	1	DGA0	0.000	
120	 HXT	-6.201	8.759	-8.070	 H	1	DGA0	0.000	
@<TRIPOS>BOND
1 1 2 1
2 1 19 2
3 1 39 1
4 2 3 1
5 2 45 1
6 2 46 1
7 3 4 1
8 3 47 1
9 3 48 1
10 4 5 1
11 4 49 1
12 4 50 1
13 5 6 1
14 5 51 1
15 5 52 1
16 6 7 1
17 6 53 1
18 6 54 1
19 7 8 1
20 7 55 1
21 7 56 1
22 8 9 1
23 8 57 1
24 8 58 1
25 9 10 1
26 9 59 1
27 9 60 1
28 10 11 1
29 10 61 1
30 10 62 1
31 11 12 1
32 11 63 1
33 11 64 1
34 12 13 1
35 12 65 1
36 12 66 1
37 13 14 1
38 13 67 1
39 13 68 1
40 14 15 1
41 14 69 1
42 14 70 1
43 15 16 1
44 15 71 1
45 15 72 1
46 16 17 1
47 16 73 1
48 16 74 1
49 17 18 1
50 17 75 1
51 17 76 1
52 18 77 1
53 18 78 1
54 18 79 1
55 20 21 1
56 20 38 2
57 20 42 1
58 21 22 1
59 21 80 1
60 21 81 1
61 22 23 1
62 22 82 1
63 22 83 1
64 23 24 1
65 23 84 1
66 23 85 1
67 24 25 1
68 24 86 1
69 24 87 1
70 25 26 1
71 25 88 1
72 25 89 1
73 26 27 1
74 26 90 1
75 26 91 1
76 27 28 1
77 27 92 1
78 27 93 1
79 28 29 1
80 28 94 1
81 28 95 1
82 29 30 1
83 29 96 1
84 29 97 1
85 30 31 1
86 30 98 1
87 30 99 1
88 31 32 1
89 31 100 1
90 31 101 1
91 32 33 1
92 32 102 1
93 32 103 1
94 33 34 1
95 33 104 1
96 33 105 1
97 34 35 1
98 34 106 1
99 34 107 1
100 35 36 1
101 35 108 1
102 35 109 1
103 36 37 1
104 36 110 1
105 36 111 1
106 37 112 1
107 37 113 1
108 37 114 1
109 39 40 1
110 40 41 1
111 40 115 1
112 40 116 1
113 41 42 1
114 41 43 1
115 41 117 1
116 43 44 1
117 43 118 1
118 43 119 1
119 44 120 1
@<TRIPOS>SUBSTRUCTURE
1	DGA0	1	GROUP	1 ****	DGA
