@<TRIPOS>MOLECULE
9EU
59 63 1 0 0 
SMALL
USER_CHARGES


@<TRIPOS>ATOM
  1 CAB     73.2080    16.5100   199.4350 C.3   1 Q9EU  -0.0600 
  2 HAB1    73.6986    17.0800   200.2240 H     1 Q9EU   0.0800 
  3 HAB2    72.1271    16.6130   199.5307 H     1 Q9EU   0.0800 
  4 HAB3    73.5244    16.8884   198.4630 H     1 Q9EU   0.0800 
  5 CAX     73.5910    15.0400   199.5570 C.2   1 Q9EU   0.0065 
  6 NAU     74.3530    14.5860   200.5330 N.2   1 Q9EU  -0.5653 
  7 CBD     74.4680    13.2740   200.3790 C.ar  1 Q9EU   0.2272 
  8 CAP     75.1420    12.3700   201.1130 C.ar  1 Q9EU   0.2110 
  9 HAP     75.6724    12.6698   202.0047 H     1 Q9EU   0.1500 
 10 NAT     75.1420    11.0240   200.6950 N.ar  1 Q9EU  -0.1790 
 11 HAT     75.6440    10.3309   201.2315 H     1 Q9EU   0.4570 
 12 CAJ     74.4430    10.6400   199.5290 C.ar  1 Q9EU   0.2110 
 13 HAJ     74.4265     9.6127   199.1962 H     1 Q9EU   0.1500 
 14 CAO     73.7750    11.6420   198.8250 C.ar  1 Q9EU  -0.1500 
 15 HAO     73.2459    11.3929   197.9171 H     1 Q9EU   0.1500 
 16 CBE     73.7810    12.9210   199.2640 C.ar  1 Q9EU  -0.1516 
 17 NBJ     73.1950    14.0290   198.7780 N.pl3 1 Q9EU   0.0476 
 18 CAS     72.3810    14.1190   197.5110 C.3   1 Q9EU   0.2391 
 19 HAS1    72.2346    15.1716   197.2688 H     1 Q9EU   0.0800 
 20 HAS2    72.9375    13.6354   196.7081 H     1 Q9EU   0.0800 
 21 CBB     71.1310    13.5110   197.6100 C.ar  1 Q9EU  -0.1435 
 22 CAY     70.6340    12.8120   196.5130 C.ar  1 Q9EU   0.1900 
 23 FAG     71.3760    12.7150   195.4750 F     1 Q9EU  -0.1900 
 24 CAQ     69.3620    12.2110   196.5630 C.ar  1 Q9EU  -0.1500 
 25 HAQ     68.9985    11.6494   195.7151 H     1 Q9EU   0.1500 
 26 CAM     70.3400    13.6430   198.7570 C.ar  1 Q9EU  -0.1500 
 27 HAM     70.7130    14.1957   199.6066 H     1 Q9EU   0.1500 
 28 CAL     69.0700    13.0630   198.8080 C.ar  1 Q9EU  -0.1500 
 29 HAL     68.4715    13.1728   199.7003 H     1 Q9EU   0.1500 
 30 CAZ     68.5590    12.3400   197.7190 C.ar  1 Q9EU   0.0862 
 31 CAV     67.2520    11.7980   197.8340 C.2   1 Q9EU   0.5698 
 32 OAE     66.8000    11.4200   198.9310 O.2   1 Q9EU  -0.5700 
 33 CBC     66.4230    11.9240   196.7740 C.2   1 Q9EU  -0.0860 
 34 CAR     66.0920    13.1180   196.2940 C.2   1 Q9EU  -0.3016 
 35 HAR     66.4729    14.0647   196.6476 H     1 Q9EU   0.1500 
 36 CBG     65.5920    10.9910   196.2520 C.ar  1 Q9EU  -0.0000 
 37 CBA     65.4200     9.6450   196.4260 C.ar  1 Q9EU   0.0730 
 38 CAH     66.1790     8.8300   197.3630 C.1   1 Q9EU  -0.0730 
 39 CAA     66.8080     8.1280   198.1540 C.1   1 Q9EU  -0.1770 
 40 HAA     67.3524     7.5204   198.8386 H     1 Q9EU   0.1770 
 41 CAK     64.4760     8.9550   195.6700 C.ar  1 Q9EU  -0.1500 
 42 HAK     64.3263     7.8961   195.8207 H     1 Q9EU   0.1500 
 43 CAI     63.7280     9.6400   194.7200 C.ar  1 Q9EU  -0.1500 
 44 HAI     63.0146     9.1203   194.0976 H     1 Q9EU   0.1500 
 45 CAN     63.9200    11.0060   194.5910 C.ar  1 Q9EU  -0.1500 
 46 HAN     63.3095    11.5631   193.8958 H     1 Q9EU   0.1500 
 47 CBF     64.8550    11.6540   195.3170 C.ar  1 Q9EU  -0.1516 
 48 NBI     65.2150    12.9570   195.3070 N.pl3 1 Q9EU   0.2942 
 49 CAW     64.6070    13.9570   194.6040 C.2   1 Q9EU   0.6390 
 50 OAF     63.3780    13.8940   194.4160 O.2   1 Q9EU  -0.5700 
 51 NBH     65.3240    15.0430   194.1490 N.am  1 Q9EU  -0.6602 
 52 CAC     66.7710    15.1720   194.3690 C.3   1 Q9EU   0.0601 
 53 HAC1    67.1242    16.1033   193.9262 H     1 Q9EU   0.0800 
 54 HAC2    67.2855    14.3308   193.9046 H     1 Q9EU   0.0800 
 55 HAC3    66.9767    15.1777   195.4394 H     1 Q9EU   0.0800 
 56 CAD     64.6220    16.1000   193.4040 C.3   1 Q9EU   0.0601 
 57 HAD1    65.3316    16.8774   193.1207 H     1 Q9EU   0.0800 
 58 HAD2    63.8426    16.5310   194.0323 H     1 Q9EU   0.0800 
 59 HAD3    64.1718    15.6746   192.5071 H     1 Q9EU   0.0800 
@<TRIPOS>BOND
  1   1   2  1   
  2   1   3  1   
  3   1   4  1   
  4   1   5  1   
  5   5   6  2   
  6   5  17  1   
  7   6   7  1   
  8   7   8  ar  
  9   7  16  ar  
 10   8   9  1   
 11   8  10  ar  
 12  10  11  1   
 13  10  12  ar  
 14  12  13  1   
 15  12  14  ar  
 16  14  15  1   
 17  14  16  ar  
 18  16  17  1   
 19  17  18  1   
 20  18  19  1   
 21  18  20  1   
 22  18  21  1   
 23  21  22  ar  
 24  21  26  ar  
 25  22  23  1   
 26  22  24  ar  
 27  24  25  1   
 28  24  30  ar  
 29  26  27  1   
 30  26  28  ar  
 31  28  29  1   
 32  28  30  ar  
 33  30  31  1   
 34  31  32  2   
 35  31  33  1   
 36  33  34  2   
 37  33  36  1   
 38  34  35  1   
 39  34  48  1   
 40  36  37  ar  
 41  36  47  ar  
 42  37  38  1   
 43  37  41  ar  
 44  38  39  3   
 45  39  40  1   
 46  41  42  1   
 47  41  43  ar  
 48  43  44  1   
 49  43  45  ar  
 50  45  46  1   
 51  45  47  ar  
 52  47  48  1   
 53  48  49  1   
 54  49  50  2   
 55  49  51  am  
 56  51  52  1   
 57  51  56  1   
 58  52  53  1   
 59  52  54  1   
 60  52  55  1   
 61  56  57  1   
 62  56  58  1   
 63  56  59  1   
@<TRIPOS>SUBSTRUCTURE
  1 Q9EU  30 GROUP 4 L **** 0

# MOE 2019.01 (io_trps.svl 2018.10)
