# created with PyMOL 2.3.5
@<TRIPOS>MOLECULE
9EU
58 62 1 0 0
SMALL
USER_CHARGES


@<TRIPOS>ATOM
      1 CAB         3.2660    0.5640   -3.3680 C.3       1 9EU1        0.0000
      2 CAX         4.1970    0.4590   -2.1870 C.2       1 9EU1        0.0000
      3 NAU         5.0970    1.3420   -1.8660 N.2       1 9EU1        0.0000
      4 CBD         5.7560    0.9360   -0.7520 C.2       1 9EU1        0.0000
      5 CAP         6.7890    1.4660    0.0200 C.2       1 9EU1        0.0000
      6 NAT         7.2260    0.8170    1.0790 N.2       1 9EU1        0.0000
      7 CAJ         6.7210   -0.3460    1.4550 C.2       1 9EU1        0.0000
      8 CAO         5.6980   -0.9430    0.7500 C.2       1 9EU1        0.0000
      9 CBE         5.1970   -0.3010   -0.3760 C.2       1 9EU1        0.0000
     10 NBJ         4.2130   -0.5720   -1.2980 N.pl3     1 9EU1        0.0000
     11 CAS         3.3450   -1.7520   -1.3200 C.3       1 9EU1        0.0000
     12 CBB         2.1010   -1.4750   -0.5160 C.2       1 9EU1        0.0000
     13 CAY         2.1380   -1.5620    0.8660 C.2       1 9EU1        0.0000
     14 FAG         3.2870   -1.9010    1.4900 F         1 9EU1        0.0000
     15 CAQ         1.0010   -1.3030    1.6070 C.2       1 9EU1        0.0000
     16 CAM         0.9270   -1.1280   -1.1620 C.2       1 9EU1        0.0000
     17 CAL        -0.2160   -0.8730   -0.4340 C.2       1 9EU1        0.0000
     18 CAZ        -0.1850   -0.9540    0.9600 C.2       1 9EU1        0.0000
     19 CAV        -1.4060   -0.6760    1.7470 C.2       1 9EU1        0.0000
     20 OAE        -1.4070   -0.8490    2.9510 O.2       1 9EU1        0.0000
     21 CBC        -2.6190   -0.1900    1.0740 C.2       1 9EU1        0.0000
     22 CAR        -3.7410   -0.9140    0.7930 C.2       1 9EU1        0.0000
     23 CBG        -2.8630    1.1750    0.5760 C.2       1 9EU1        0.0000
     24 CBA        -2.1080    2.3590    0.5700 C.2       1 9EU1        0.0000
     25 CAH        -0.7950    2.3810    1.1410 C.1       1 9EU1        0.0000
     26 CAA         0.2810    2.4000    1.6090 C.1       1 9EU1        0.0000
     27 CAK        -2.6480    3.5110    0.0030 C.2       1 9EU1        0.0000
     28 CAI        -3.9170    3.4840   -0.5480 C.2       1 9EU1        0.0000
     29 CAN        -4.6640    2.3240   -0.5440 C.2       1 9EU1        0.0000
     30 CBF        -4.1470    1.1600    0.0150 C.2       1 9EU1        0.0000
     31 NBI        -4.6510   -0.1220    0.1640 N.pl3     1 9EU1        0.0000
     32 CAW        -5.8680   -0.5260   -0.2520 C.2       1 9EU1        0.0000
     33 OAF        -6.8610    0.0800    0.0990 O.2       1 9EU1        0.0000
     34 NBH        -5.9830   -1.6000   -1.0570 N.pl3     1 9EU1        0.0000
     35 CAC        -7.3090   -2.1050   -1.4190 C.3       1 9EU1        0.0000
     36 CAD        -4.7810   -2.2640   -1.5690 C.3       1 9EU1        0.0000
     37 H1          3.7300    0.1010   -4.2390 H         1 9EU1        0.0000
     38 H2          2.3300    0.0540   -3.1400 H         1 9EU1        0.0000
     39 H3          3.0660    1.6150   -3.5800 H         1 9EU1        0.0000
     40 H4          7.2320    2.4130   -0.2510 H         1 9EU1        0.0000
     41 H5          7.1170   -0.8360    2.3320 H         1 9EU1        0.0000
     42 H6          5.2940   -1.8930    1.0670 H         1 9EU1        0.0000
     43 H7          3.0700   -1.9810   -2.3490 H         1 9EU1        0.0000
     44 H8          3.8750   -2.6010   -0.8870 H         1 9EU1        0.0000
     45 H9          1.0300   -1.3720    2.6850 H         1 9EU1        0.0000
     46 H10         0.9060   -1.0570   -2.2400 H         1 9EU1        0.0000
     47 H11        -1.1310   -0.6030   -0.9400 H         1 9EU1        0.0000
     48 H12        -3.8840   -1.9580    1.0330 H         1 9EU1        0.0000
     49 H13         1.2440    2.4170    2.0280 H         1 9EU1        0.0000
     50 H14        -2.0750    4.4260   -0.0060 H         1 9EU1        0.0000
     51 H15        -4.3280    4.3820   -0.9850 H         1 9EU1        0.0000
     52 H16        -5.6530    2.3190   -0.9780 H         1 9EU1        0.0000
     53 H17        -7.6480   -1.6140   -2.3310 H         1 9EU1        0.0000
     54 H18        -7.2560   -3.1810   -1.5850 H         1 9EU1        0.0000
     55 H19        -8.0110   -1.8970   -0.6120 H         1 9EU1        0.0000
     56 H20        -4.2300   -2.7080   -0.7410 H         1 9EU1        0.0000
     57 H21        -5.0690   -3.0440   -2.2740 H         1 9EU1        0.0000
     58 H22        -4.1500   -1.5330   -2.0750 H         1 9EU1        0.0000
@<TRIPOS>BOND
     1   28   29 2
     2   27   28 1
     3   29   30 1
     4   32   33 2
     5   34   36 1
     6   24   27 2
     7   32   34 1
     8   31   32 1
     9   34   35 1
    10   30   31 1
    11   23   30 2
    12   22   31 1
    13   23   24 1
    14   24   25 1
    15   21   23 1
    16   21   22 2
    17   25   26 3
    18   19   21 1
    19   19   20 2
    20   18   19 1
    21   15   18 2
    22   13   15 1
    23   17   18 1
    24   13   14 1
    25   12   13 2
    26   16   17 2
    27   12   16 1
    28   11   12 1
    29   10   11 1
    30    9   10 1
    31    2   10 1
    32    8    9 2
    33    7    8 1
    34    1    2 1
    35    4    9 1
    36    2    3 2
    37    6    7 2
    38    3    4 1
    39    4    5 2
    40    5    6 1
    41    1   37 1
    42    1   38 1
    43    1   39 1
    44    5   40 1
    45    7   41 1
    46    8   42 1
    47   11   43 1
    48   11   44 1
    49   15   45 1
    50   16   46 1
    51   17   47 1
    52   22   48 1
    53   26   49 1
    54   27   50 1
    55   28   51 1
    56   29   52 1
    57   35   53 1
    58   35   54 1
    59   35   55 1
    60   36   56 1
    61   36   57 1
    62   36   58 1
@<TRIPOS>SUBSTRUCTURE
     1 9EU1        1 RESIDUE           4 A     9EU     0 ROOT
