# created with PyMOL 2.3.5
@<TRIPOS>MOLECULE
CIT
21 20 1                 
SMALL
USER_CHARGES
@<TRIPOS>ATOM
1	  C1	0.412	-0.006	2.479	C.2	1	CIT0	0.000	
2	  O1	-0.446	0.836	2.368	O.co2	1	CIT0	0.000	
3	  O2	0.812	-0.400	3.698	O.3	1	CIT0	0.000	
4	  C2	1.032	-0.616	1.249	C.3	1	CIT0	0.000	
5	  C3	0.402	0.002	0.000	C.3	1	CIT0	0.000	
6	  O7	0.631	1.412	0.000	O.3	1	CIT0	0.000	
7	  C4	1.032	-0.616	-1.249	C.3	1	CIT0	0.000	
8	  C5	0.412	-0.006	-2.479	C.2	1	CIT0	0.000	
9	  O3	-0.446	0.836	-2.368	O.co2	1	CIT0	0.000	
10	  O4	0.812	-0.400	-3.698	O.3	1	CIT0	0.000	
11	  C6	-1.080	-0.265	0.000	C.2	1	CIT0	0.000	
12	  O5	-1.860	0.656	0.000	O.co2	1	CIT0	0.000	
13	  O6	-1.533	-1.529	0.000	O.3	1	CIT0	0.000	
14	 HO2	0.414	-0.009	4.488	 H	1	CIT0	0.000	
15	 H21	2.105	-0.422	1.249	 H	1	CIT0	0.000	
16	 H22	0.858	-1.692	1.249	 H	1	CIT0	0.000	
17	 HO7	1.590	1.540	0.000	 H	1	CIT0	0.000	
18	 H41	2.105	-0.422	-1.249	 H	1	CIT0	0.000	
19	 H42	0.858	-1.692	-1.249	 H	1	CIT0	0.000	
20	 HO4	0.414	-0.009	-4.488	 H	1	CIT0	0.000	
21	 HO6	-2.485	-1.701	0.000	 H	1	CIT0	0.000	
@<TRIPOS>BOND
1 1 2 2
2 1 3 1
3 1 4 1
4 3 14 1
5 4 5 1
6 4 15 1
7 4 16 1
8 5 6 1
9 5 7 1
10 5 11 1
11 6 17 1
12 7 8 1
13 7 18 1
14 7 19 1
15 8 9 2
16 8 10 1
17 10 20 1
18 11 12 2
19 11 13 1
20 13 21 1
@<TRIPOS>SUBSTRUCTURE
1	CIT0	1	GROUP	1 ****	CIT
