# created with PyMOL 2.3.5
@<TRIPOS>MOLECULE
82F
75 78 1 0 0
SMALL
USER_CHARGES


@<TRIPOS>ATOM
      1 H01         5.2010   -0.2980    0.8690 H         1 82F1        0.0000
      2 C4         -2.5400   -0.7970   -3.5820 C.2       1 82F1        0.0000
      3 C5         -2.8530   -0.4230   -1.3220 C.2       1 82F1        0.0000
      4 C6         -4.0420    0.7960    0.3810 C.2       1 82F1        0.0000
      5 N1         -2.4940   -0.0050   -2.5280 N.2       1 82F1        0.0000
      6 C7         -4.5110    2.1010    0.3850 C.2       1 82F1        0.0000
      7 C8         -5.7200    2.4000    0.9830 C.2       1 82F1        0.0000
      8 N2         -2.8430    0.4880   -0.2610 N.pl3     1 82F1        0.0000
      9 C9         -6.4730    1.3990    1.5730 C.2       1 82F1        0.0000
     10 C10        -6.0180    0.0990    1.5840 C.2       1 82F1        0.0000
     11 C11        -4.7860   -0.2170    1.0010 C.2       1 82F1        0.0000
     12 C12        -1.6890    1.0600    0.1360 C.2       1 82F1        0.0000
     13 N3         -0.5350    0.7550   -0.4900 N.pl3     1 82F1        0.0000
     14 C13         0.7190    1.3770   -0.0580 C.3       1 82F1        0.0000
     15 C14         1.8680    0.8640   -0.9280 C.3       1 82F1        0.0000
     16 C15         3.0970    2.9390   -0.7160 C.3       1 82F1        0.0000
     17 N4          3.1260    1.4880   -0.4950 N.3       1 82F1        0.0000
     18 N          -3.5980   -2.2220    0.1350 N.pl3     1 82F1        0.0000
     19 C          -4.2690   -1.5870    1.0840 C.2       1 82F1        0.0000
     20 O          -4.4760   -2.1950    2.1160 O.2       1 82F1        0.0000
     21 C1         -3.2720   -1.7360   -1.1280 C.2       1 82F1        0.0000
     22 C16         4.3580    3.5720   -0.1230 C.3       1 82F1        0.0000
     23 C17         5.5930    2.9590   -0.7890 C.3       1 82F1        0.0000
     24 C18         5.5730    1.4420   -0.5850 C.3       1 82F1        0.0000
     25 C19         4.2770    0.8710   -1.1650 C.3       1 82F1        0.0000
     26 C2         -3.3560   -2.5850   -2.2270 C.2       1 82F1        0.0000
     27 C20         4.2440   -0.6430   -0.9460 C.3       1 82F1        0.0000
     28 C21         3.1760   -0.6170    1.2270 C.3       1 82F1        0.0000
     29 C22         3.4100   -0.8430    2.7220 C.3       1 82F1        0.0000
     30 C23         2.1810   -0.3800    3.5060 C.3       1 82F1        0.0000
     31 C24         4.8010   -2.3320    0.6970 C.3       1 82F1        0.0000
     32 C25         6.2840   -2.4980    0.3580 C.3       1 82F1        0.0000
     33 C26         6.6700   -3.9750    0.4690 C.3       1 82F1        0.0000
     34 C3         -2.9820   -2.0990   -3.4720 C.2       1 82F1        0.0000
     35 N5          4.4040   -0.9340    0.4850 N.3       1 82F1        0.0000
     36 O1         -1.6890    1.8500    1.0600 O.2       1 82F1        0.0000
     37 H1         -2.2310   -0.4190   -4.5450 H         1 82F1        0.0000
     38 H2         -3.9300    2.8850   -0.0790 H         1 82F1        0.0000
     39 H3         -6.0780    3.4190    0.9900 H         1 82F1        0.0000
     40 H4         -7.4240    1.6390    2.0270 H         1 82F1        0.0000
     41 H5         -6.6120   -0.6770    2.0430 H         1 82F1        0.0000
     42 H6         -0.5350    0.1250   -1.2270 H         1 82F1        0.0000
     43 H7          0.6410    2.4600   -0.1600 H         1 82F1        0.0000
     44 H8          0.9100    1.1230    0.9840 H         1 82F1        0.0000
     45 H9          1.9460   -0.2180   -0.8260 H         1 82F1        0.0000
     46 H10         1.6770    1.1180   -1.9700 H         1 82F1        0.0000
     47 H11         3.0580    3.1420   -1.7860 H         1 82F1        0.0000
     48 H12         2.2170    3.3630   -0.2330 H         1 82F1        0.0000
     49 H14        -3.3030   -3.1220    0.3420 H         1 82F1        0.0000
     50 H15         4.3440    4.6470   -0.3010 H         1 82F1        0.0000
     51 H16         4.3900    3.3810    0.9500 H         1 82F1        0.0000
     52 H17         5.5800    3.1840   -1.8560 H         1 82F1        0.0000
     53 H18         6.4940    3.3760   -0.3390 H         1 82F1        0.0000
     54 H19         6.4280    0.9960   -1.0940 H         1 82F1        0.0000
     55 H20         5.6250    1.2170    0.4800 H         1 82F1        0.0000
     56 H21         4.2330    1.0840   -2.2330 H         1 82F1        0.0000
     57 H22        -3.7050   -3.6010   -2.1140 H         1 82F1        0.0000
     58 H23         3.2900   -1.0400   -1.2930 H         1 82F1        0.0000
     59 H24         5.0570   -1.1090   -1.5040 H         1 82F1        0.0000
     60 H25         2.3680   -1.2640    0.8840 H         1 82F1        0.0000
     61 H26         2.9060    0.4240    1.0540 H         1 82F1        0.0000
     62 H27         3.5810   -1.9030    2.9070 H         1 82F1        0.0000
     63 H28         4.2820   -0.2730    3.0430 H         1 82F1        0.0000
     64 H29         2.0100    0.6800    3.3210 H         1 82F1        0.0000
     65 H30         1.3090   -0.9510    3.1850 H         1 82F1        0.0000
     66 H31         2.3480   -0.5410    4.5710 H         1 82F1        0.0000
     67 H32         4.2060   -2.9800    0.0540 H         1 82F1        0.0000
     68 H33         4.6340   -2.6030    1.7400 H         1 82F1        0.0000
     69 H34         6.4640   -2.1510   -0.6590 H         1 82F1        0.0000
     70 H35         6.8830   -1.9120    1.0540 H         1 82F1        0.0000
     71 H36         6.4890   -4.3220    1.4860 H         1 82F1        0.0000
     72 H37         6.0700   -4.5610   -0.2280 H         1 82F1        0.0000
     73 H38         7.7260   -4.0930    0.2270 H         1 82F1        0.0000
     74 H39        -3.0370   -2.7330   -4.3440 H         1 82F1        0.0000
     75 HN          3.2243    1.3286    0.4975 H         1 82F1        0.0000
@<TRIPOS>BOND
     1    2   37 1
     2    3    5 2
     3    4    6 1
     4    2    5 1
     5    6    7 2
     6    6   38 1
     7    7   39 1
     8    3    8 1
     9    4    8 1
    10    7    9 1
    11    9   40 1
    12    9   10 2
    13   10   41 1
    14    4   11 2
    15   10   11 1
    16    8   12 1
    17   12   13 1
    18   13   42 1
    19   13   14 1
    20   14   43 1
    21   14   44 1
    22   14   15 1
    23   15   45 1
    24   15   46 1
    25   16   17 1
    26   16   47 1
    27   16   48 1
    28   15   17 1
    29   18   19 1
    30   18   21 1
    31   18   49 1
    32   11   19 1
    33   19   20 2
    34    3   21 1
    35   21   26 2
    36   16   22 1
    37   22   50 1
    38   22   51 1
    39   22   23 1
    40   23   24 1
    41   23   52 1
    42   23   53 1
    43   24   25 1
    44   24   54 1
    45   24   55 1
    46   17   25 1
    47   25   56 1
    48   26   34 1
    49   26   57 1
    50   25   27 1
    51   27   35 1
    52   27   58 1
    53   27   59 1
    54   28   29 1
    55   28   60 1
    56   28   61 1
    57   29   30 1
    58   29   62 1
    59   29   63 1
    60   30   64 1
    61   30   65 1
    62   30   66 1
    63   31   32 1
    64   31   35 1
    65   31   67 1
    66   31   68 1
    67   32   69 1
    68   32   70 1
    69   32   33 1
    70   33   71 1
    71   33   72 1
    72   33   73 1
    73    2   34 2
    74   34   74 1
    75    1   35 1
    76   28   35 1
    77   12   36 2
    78   75   17 1
@<TRIPOS>SUBSTRUCTURE
     1 82F1        1 RESIDUE           4 A     82F     0 ROOT
