# created with PyMOL 2.3.5
@<TRIPOS>MOLECULE
CAU
45 47 1 0 0
SMALL
USER_CHARGES


@<TRIPOS>ATOM
      1 H01         4.7670   -1.2010   -0.7410 H         1 CAU1        0.0000
      2 O17         2.3430   -0.9770   -1.1490 O.3       1 CAU1        0.0000
      3 C16         2.4170   -0.2440    0.0750 C.3       1 CAU1        0.0000
      4 C18         3.8080    0.3790    0.2130 C.3       1 CAU1        0.0000
      5 N19         4.8220   -0.6830    0.2160 N.3       1 CAU1        0.0000
      6 C20         6.1730   -0.1210    0.3480 C.3       1 CAU1        0.0000
      7 C21         7.1050   -1.1690    0.9590 C.3       1 CAU1        0.0000
      8 C22         6.6940    0.2820   -1.0330 C.3       1 CAU1        0.0000
      9 C15         1.3600    0.8630    0.0710 C.3       1 CAU1        0.0000
     10 O14         0.0570    0.2770    0.0600 O.3       1 CAU1        0.0000
     11 C13        -1.0020    1.1280    0.0550 C.2       1 CAU1        0.0000
     12 C12        -0.7940    2.4960    0.0620 C.2       1 CAU1        0.0000
     13 C11        -1.8730    3.3640    0.0570 C.2       1 CAU1        0.0000
     14 C10        -3.1640    2.8800    0.0470 C.2       1 CAU1        0.0000
     15 C8         -3.3960    1.5070    0.0400 C.2       1 CAU1        0.0000
     16 C9         -2.3060    0.6260    0.0380 C.2       1 CAU1        0.0000
     17 N7         -4.5610    0.7610    0.0300 N.pl3     1 CAU1        0.0000
     18 C3         -4.2640   -0.5910    0.0270 C.2       1 CAU1        0.0000
     19 C4         -2.8680   -0.7370    0.0310 C.2       1 CAU1        0.0000
     20 C2         -5.0680   -1.7260    0.0170 C.2       1 CAU1        0.0000
     21 C1         -4.4920   -2.9790    0.0160 C.2       1 CAU1        0.0000
     22 C6         -3.1130   -3.1220    0.0250 C.2       1 CAU1        0.0000
     23 C5         -2.3000   -2.0090    0.0260 C.2       1 CAU1        0.0000
     24 H17         2.4950   -0.4400   -1.9390 H         1 CAU1        0.0000
     25 H16         2.2360   -0.9170    0.9130 H         1 CAU1        0.0000
     26 H181        3.9890    1.0520   -0.6250 H         1 CAU1        0.0000
     27 H182        3.8640    0.9390    1.1470 H         1 CAU1        0.0000
     28 H191        4.6380   -1.3560    0.9450 H         1 CAU1        0.0000
     29 H20         6.1400    0.7570    0.9940 H         1 CAU1        0.0000
     30 H211        7.1380   -2.0470    0.3120 H         1 CAU1        0.0000
     31 H212        8.1070   -0.7520    1.0560 H         1 CAU1        0.0000
     32 H213        6.7340   -1.4560    1.9420 H         1 CAU1        0.0000
     33 H221        6.7270   -0.5950   -1.6790 H         1 CAU1        0.0000
     34 H222        6.0300    1.0290   -1.4690 H         1 CAU1        0.0000
     35 H223        7.6960    0.6990   -0.9360 H         1 CAU1        0.0000
     36 H151        1.4750    1.4770    0.9640 H         1 CAU1        0.0000
     37 H152        1.4880    1.4840   -0.8160 H         1 CAU1        0.0000
     38 H12         0.2120    2.8880    0.0710 H         1 CAU1        0.0000
     39 H11        -1.7020    4.4310    0.0620 H         1 CAU1        0.0000
     40 H10        -3.9970    3.5670    0.0430 H         1 CAU1        0.0000
     41 H7         -5.4570    1.1320    0.0250 H         1 CAU1        0.0000
     42 H2         -6.1430   -1.6260    0.0100 H         1 CAU1        0.0000
     43 H1         -5.1220   -3.8570    0.0100 H         1 CAU1        0.0000
     44 H6         -2.6750   -4.1080    0.0250 H         1 CAU1        0.0000
     45 H5         -1.2260   -2.1220    0.0270 H         1 CAU1        0.0000
@<TRIPOS>BOND
     1    2   24 1
     2    2    3 1
     3    3   25 1
     4    3    4 1
     5    4    5 1
     6    4   26 1
     7    4   27 1
     8    1    5 1
     9    5   28 1
    10    5    6 1
    11    6    8 1
    12    6   29 1
    13    6    7 1
    14    7   30 1
    15    7   31 1
    16    7   32 1
    17    8   33 1
    18    8   34 1
    19    8   35 1
    20    3    9 1
    21    9   36 1
    22    9   37 1
    23    9   10 1
    24   10   11 1
    25   11   12 2
    26   12   38 1
    27   12   13 1
    28   13   39 1
    29   13   14 2
    30   14   15 1
    31   14   40 1
    32   15   16 2
    33   15   17 1
    34   11   16 1
    35   16   19 1
    36   17   18 1
    37   17   41 1
    38   18   19 2
    39   18   20 1
    40   19   23 1
    41   20   21 2
    42   20   42 1
    43   21   22 1
    44   21   43 1
    45   22   44 1
    46   22   23 2
    47   23   45 1
@<TRIPOS>SUBSTRUCTURE
     1 CAU1        1 RESIDUE           4 A     CAU     0 ROOT
