# created with PyMOL 2.3.5
@<TRIPOS>MOLECULE
GAW
74 77 1 0 0
SMALL
USER_CHARGES


@<TRIPOS>ATOM
      1 C10         3.9840    0.2340    0.3930 C.2       1 GAW1        0.0000
      2 C13         1.7160   -1.0450    1.2210 C.2       1 GAW1        0.0000
      3 C15         0.5970   -3.0700    2.1170 C.3       1 GAW1        0.0000
      4 C20         0.3130    0.5080   -0.0280 C.3       1 GAW1        0.0000
      5 C21        -2.0880    0.6160    0.5820 C.2       1 GAW1        0.0000
      6 C22        -2.9480   -0.4520    0.4100 C.2       1 GAW1        0.0000
      7 C24        -4.6440    1.0400   -0.3840 C.2       1 GAW1        0.0000
      8 C26        -2.5060    1.8970    0.2700 C.2       1 GAW1        0.0000
      9 C01         3.6300   -4.0780    0.2160 C.3       1 GAW1        0.0000
     10 C02         2.4150   -3.8800   -0.6540 C.2       1 GAW1        0.0000
     11 C03         1.9000   -4.9380   -1.3740 C.2       1 GAW1        0.0000
     12 C04         0.7850   -4.7570   -2.1730 C.2       1 GAW1        0.0000
     13 C05         0.1800   -3.5160   -2.2550 C.2       1 GAW1        0.0000
     14 C06         0.6860   -2.4500   -1.5380 C.2       1 GAW1        0.0000
     15 C07         1.8060   -2.6280   -0.7280 C.2       1 GAW1        0.0000
     16 C08         2.3510   -1.4880    0.0490 C.2       1 GAW1        0.0000
     17 C09         3.5080   -0.8280   -0.3640 C.2       1 GAW1        0.0000
     18 C12         2.2570    0.0230    1.9160 C.2       1 GAW1        0.0000
     19 C16        -0.6110   -0.9920    1.7160 C.2       1 GAW1        0.0000
     20 C18        -0.6970    0.3870    1.1140 C.3       1 GAW1        0.0000
     21 C19        -0.3820    1.4320    2.1860 C.3       1 GAW1        0.0000
     22 C23        -4.2260   -0.2410   -0.0730 C.2       1 GAW1        0.0000
     23 C25        -3.7830    2.1080   -0.2130 C.2       1 GAW1        0.0000
     24 C27        -4.2390    3.5040   -0.5530 C.3       1 GAW1        0.0000
     25 C31        -5.1630   -1.4060   -0.2610 C.3       1 GAW1        0.0000
     26 C36         5.0100    1.4060   -1.3790 C.3       1 GAW1        0.0000
     27 C37         6.3270    2.0570   -1.8070 C.3       1 GAW1        0.0000
     28 C39         6.7910    2.6370    0.4970 C.3       1 GAW1        0.0000
     29 C40         5.4730    1.9850    0.9250 C.3       1 GAW1        0.0000
     30 C41         5.6610    4.2200   -0.9460 C.3       1 GAW1        0.0000
     31 F28        -3.9400    3.7800   -1.8910 F         1 GAW1        0.0000
     32 F29        -5.6200    3.6050   -0.3540 F         1 GAW1        0.0000
     33 F30        -3.5810    4.4230    0.2710 F         1 GAW1        0.0000
     34 F32        -5.8930   -1.6110    0.9140 F         1 GAW1        0.0000
     35 F33        -6.0410   -1.1320   -1.3150 F         1 GAW1        0.0000
     36 F34        -4.4230   -2.5560   -0.5570 F         1 GAW1        0.0000
     37 N11         3.3550    0.6220    1.4920 N.2       1 GAW1        0.0000
     38 N14         0.5510   -1.6730    1.6790 N.pl3     1 GAW1        0.0000
     39 N35         5.1410    0.8980   -0.0060 N.pl3     1 GAW1        0.0000
     40 N38         6.6590    3.1450   -0.8760 N.3       1 GAW1        0.0000
     41 O17        -1.5890   -1.4900    2.2350 O.2       1 GAW1        0.0000
     42 H1          0.7270   -3.1080    3.1980 H         1 GAW1        0.0000
     43 H2         -0.3350   -3.5660    1.8460 H         1 GAW1        0.0000
     44 H3          1.4320   -3.5760    1.6330 H         1 GAW1        0.0000
     45 H4          0.5110   -0.4800   -0.4450 H         1 GAW1        0.0000
     46 H5         -0.0930    1.1550   -0.8050 H         1 GAW1        0.0000
     47 H6          1.2420    0.9340    0.3510 H         1 GAW1        0.0000
     48 H7         -2.6210   -1.4530    0.6530 H         1 GAW1        0.0000
     49 H8         -5.6420    1.2050   -0.7620 H         1 GAW1        0.0000
     50 H9         -1.8340    2.7320    0.4040 H         1 GAW1        0.0000
     51 H10         4.5240   -3.7930   -0.3380 H         1 GAW1        0.0000
     52 H11         3.5430   -3.4590    1.1090 H         1 GAW1        0.0000
     53 H12         3.7010   -5.1260    0.5070 H         1 GAW1        0.0000
     54 H13         2.3680   -5.9100   -1.3140 H         1 GAW1        0.0000
     55 H14         0.3860   -5.5880   -2.7360 H         1 GAW1        0.0000
     56 H15        -0.6900   -3.3800   -2.8800 H         1 GAW1        0.0000
     57 H16         0.2130   -1.4820   -1.6030 H         1 GAW1        0.0000
     58 H17         4.0260   -1.1390   -1.2590 H         1 GAW1        0.0000
     59 H18         1.7760    0.3710    2.8180 H         1 GAW1        0.0000
     60 H19        -0.5360    2.4300    1.7770 H         1 GAW1        0.0000
     61 H20        -1.0420    1.2850    3.0420 H         1 GAW1        0.0000
     62 H21         0.6550    1.3250    2.5040 H         1 GAW1        0.0000
     63 H22         4.2100    2.1450   -1.4180 H         1 GAW1        0.0000
     64 H23         4.7770    0.5810   -2.0510 H         1 GAW1        0.0000
     65 H24         7.1230    1.3120   -1.7940 H         1 GAW1        0.0000
     66 H25         6.2230    2.4600   -2.8150 H         1 GAW1        0.0000
     67 H26         7.0240    3.4620    1.1690 H         1 GAW1        0.0000
     68 H27         7.5910    1.8980    0.5360 H         1 GAW1        0.0000
     69 H28         5.5770    1.5820    1.9330 H         1 GAW1        0.0000
     70 H29         4.6770    2.7300    0.9120 H         1 GAW1        0.0000
     71 H30         5.9660    5.0410   -0.2980 H         1 GAW1        0.0000
     72 H31         5.5840    4.5780   -1.9730 H         1 GAW1        0.0000
     73 H32         4.6930    3.8400   -0.6200 H         1 GAW1        0.0000
     74 HN          7.5509    3.5299   -1.1525 H         1 GAW1        0.0000
@<TRIPOS>BOND
     1   28   29 1
     2   28   40 1
     3   29   39 1
     4   30   40 1
     5   27   40 1
     6   26   27 1
     7   26   39 1
     8    1   39 1
     9    1   37 2
    10   18   37 1
    11    1   17 1
    12    2   18 2
    13   16   17 2
    14    2   16 1
    15    2   38 1
    16   15   16 1
    17   19   41 2
    18   19   38 1
    19    3   38 1
    20    4   20 1
    21   19   20 1
    22    9   10 1
    23   10   15 2
    24   14   15 1
    25   20   21 1
    26    5   20 1
    27   10   11 1
    28   13   14 2
    29    5    8 2
    30    5    6 1
    31   11   12 2
    32    8   23 1
    33   12   13 1
    34    6   22 2
    35   24   33 1
    36   23   24 1
    37    7   23 2
    38   24   31 1
    39   24   32 1
    40    7   22 1
    41   22   25 1
    42   25   35 1
    43   25   34 1
    44   25   36 1
    45    3   42 1
    46    3   43 1
    47    3   44 1
    48    4   45 1
    49    4   46 1
    50    4   47 1
    51    6   48 1
    52    7   49 1
    53    8   50 1
    54    9   51 1
    55    9   52 1
    56    9   53 1
    57   11   54 1
    58   12   55 1
    59   13   56 1
    60   14   57 1
    61   17   58 1
    62   18   59 1
    63   21   60 1
    64   21   61 1
    65   21   62 1
    66   26   63 1
    67   26   64 1
    68   27   65 1
    69   27   66 1
    70   28   67 1
    71   28   68 1
    72   29   69 1
    73   29   70 1
    74   30   71 1
    75   30   72 1
    76   30   73 1
    77   74   40 1
@<TRIPOS>SUBSTRUCTURE
     1 GAW1        1 RESIDUE           4 A     GAW     0 ROOT
