@<TRIPOS>MOLECULE
OR9
20 23 1 0 0
SMALL
NO_CHARGES


@<TRIPOS>ATOM
      1 C01        92.8640  107.1250   78.0620 C.3       1 OR9451      0.0000
      2 C02        91.8250  107.5060   77.0060 C.ar      1 OR9451      0.0000
      3 C03        92.0710  106.5640   79.2590 C.3       1 OR9451      0.0000
      4 C04        91.9970  107.1470   75.6570 C.ar      1 OR9451      0.0000
      5 C05        94.3560  106.5830   76.2260 C.3       1 OR9451      0.0000
      6 C06        93.2180  106.3890   75.2280 C.3       1 OR9451      0.0000
      7 C07        90.6850  108.2250   77.4410 C.ar      1 OR9451      0.0000
      8 C08        91.2770  107.7250   79.8020 C.ar      1 OR9451      0.0000
      9 C09        90.5830  108.5620   78.8940 C.ar      1 OR9451      0.0000
     10 C10        95.1210  106.4190   78.4630 C.3       1 OR9451      0.0000
     11 C11        91.0330  107.5010   74.7090 C.ar      1 OR9451      0.0000
     12 C12        89.7370  108.5510   76.4550 C.ar      1 OR9451      0.0000
     13 C13        91.2650  107.9550   81.1840 C.ar      1 OR9451      0.0000
     14 C14        89.8710  109.6470   79.4570 C.ar      1 OR9451      0.0000
     15 C15        89.9070  108.2040   75.1120 C.ar      1 OR9451      0.0000
     16 C16        89.8600  109.8630   80.8380 C.ar      1 OR9451      0.0000
     17 C17        90.5510  109.0250   81.7020 C.ar      1 OR9451      0.0000
     18 N01        93.9520  106.2300   77.5980 N.4       1 OR9451      0.0000
     19 O01        89.1410  110.5670   78.7540 O.3       1 OR9451      0.0000
     20 O02        89.1690  110.9070   81.3690 O.3       1 OR9451      0.0000
@<TRIPOS>BOND
     1    1    2 1
     2    1    3 1
     3    1   18 1
     4    2    4 ar
     5    2    7 ar
     6    3    8 1
     7    4    6 1
     8    4   11 ar
     9    5    6 1
    10    5   18 1
    11    7    9 1
    12    7   12 ar
    13    8    9 ar
    14    8   13 ar
    15    9   14 ar
    16   10   18 1
    17   11   15 ar
    18   12   15 ar
    19   13   17 ar
    20   14   16 ar
    21   14   19 1
    22   16   17 ar
    23   16   20 1
@<TRIPOS>SUBSTRUCTURE
     1 OR9451      1 RESIDUE           4 R     OR9     0 ROOT
