@<TRIPOS>MOLECULE
FFR
41 46 1 0 0
SMALL
NO_CHARGES


@<TRIPOS>ATOM
      1 N1        104.3720  130.4340   82.7120 N.ar      1 FFR536      0.0000
      2 C15        99.6750  136.1030   83.0320 C.2       1 FFR536      0.0000
      3 C17        98.5560  133.8810   82.9880 C.3       1 FFR536      0.0000
      4 C21        96.5940  137.7630   80.6760 C.ar      1 FFR536      0.0000
      5 C24        98.4370  140.0310   81.5350 C.ar      1 FFR536      0.0000
      6 C26       100.6460  139.7200   82.4860 C.ar      1 FFR536      0.0000
      7 C28       101.2200  139.9250   81.2280 C.ar      1 FFR536      0.0000
      8 C1        102.6590  139.8140   81.0450 C.1       1 FFR536      0.0000
      9 O01       105.5180  129.0380   80.6270 O.co2     1 FFR536      0.0000
     10 C02       105.2700  128.3970   81.6770 C.2       1 FFR536      0.0000
     11 N2        103.8010  139.7140   80.8920 N.1       1 FFR536      0.0000
     12 O03       105.6160  127.2030   81.8430 O.co2     1 FFR536      0.0000
     13 C04       104.4510  129.0710   82.7470 C.ar      1 FFR536      0.0000
     14 C06       103.5680  130.9970   83.6160 C.ar      1 FFR536      0.0000
     15 C07       102.8090  130.3200   84.5940 C.ar      1 FFR536      0.0000
     16 C08       102.9300  128.9250   84.6600 C.ar      1 FFR536      0.0000
     17 C09       103.7730  128.3090   83.7220 C.ar      1 FFR536      0.0000
     18 N10       102.0540  131.2000   85.3280 N.ar      1 FFR536      0.0000
     19 C11       102.3280  132.3780   84.8020 C.ar      1 FFR536      0.0000
     20 C12       101.6400  133.6720   85.2090 C.3       1 FFR536      0.0000
     21 N13       100.7410  134.1470   84.1470 N.4       1 FFR536      0.0000
     22 C14       100.6700  135.6080   84.0680 C.3       1 FFR536      0.0000
     23 C16        98.6480  135.3560   82.5670 C.2       1 FFR536      0.0000
     24 C18        99.4020  133.5480   84.2430 C.3       1 FFR536      0.0000
     25 C19        97.7160  135.8890   81.5350 C.ar      1 FFR536      0.0000
     26 N20        97.4400  137.2200   81.5980 N.ar      1 FFR536      0.0000
     27 O22        96.3200  139.1170   80.7030 O.3       1 FFR536      0.0000
     28 C23        96.9180  139.9720   81.6840 C.3       1 FFR536      0.0000
     29 C25        99.2600  139.7730   82.6380 C.ar      1 FFR536      0.0000
     30 C29       100.3990  140.2080   80.1330 C.ar      1 FFR536      0.0000
     31 C30        99.0150  140.2730   80.2860 C.ar      1 FFR536      0.0000
     32 C31        96.0000  136.9970   79.6800 C.ar      1 FFR536      0.0000
     33 C32        96.2840  135.6350   79.6120 C.ar      1 FFR536      0.0000
     34 C33        97.1480  135.0740   80.5530 C.ar      1 FFR536      0.0000
     35 N34       103.2890  132.3320   83.8030 N.ar      1 FFR536      0.0000
     36 C35       103.8870  133.4480   83.0720 C.3       1 FFR536      0.0000
     37 C36       105.3430  133.6630   83.5100 C.3       1 FFR536      0.0000
     38 C37       105.5830  134.4470   84.8020 C.3       1 FFR536      0.0000
     39 C38       106.3710  135.4500   83.9600 C.3       1 FFR536      0.0000
     40 O39       105.9610  134.7550   82.7080 O.3       1 FFR536      0.0000
     41 F1         98.2440  140.5490   79.2110 F         1 FFR536      0.0000
@<TRIPOS>BOND
     1    1   13 ar
     2    1   14 ar
     3    2   22 1
     4    2   23 2
     5    3   23 1
     6    3   24 1
     7    4   26 ar
     8    4   27 1
     9    4   32 ar
    10    5   28 1
    11    5   29 ar
    12    5   31 ar
    13    6    7 ar
    14    6   29 ar
    15    7    8 1
    16    7   30 ar
    17    8   11 3
    18    9   10 2
    19   10   12 2
    20   10   13 1
    21   13   17 ar
    22   14   15 ar
    23   14   35 ar
    24   15   16 ar
    25   15   18 ar
    26   16   17 ar
    27   18   19 ar
    28   19   20 1
    29   19   35 ar
    30   20   21 1
    31   21   22 1
    32   21   24 1
    33   23   25 1
    34   25   26 ar
    35   25   34 ar
    36   27   28 1
    37   30   31 ar
    38   31   41 1
    39   32   33 ar
    40   33   34 ar
    41   35   36 1
    42   36   37 1
    43   37   38 1
    44   37   40 1
    45   38   39 1
    46   39   40 1
@<TRIPOS>SUBSTRUCTURE
     1 FFR536      1 RESIDUE           4 R     FFR     0 ROOT
