# created with PyMOL 2.3.5
@<TRIPOS>MOLECULE
9ER
74 76 1 0 0
SMALL
USER_CHARGES


@<TRIPOS>ATOM
      1 CAK        -1.9520    2.8350    2.5790 C.3       1 9ER1        0.0000
      2 CAJ        -1.5130    1.4310    2.1580 C.3       1 9ER1        0.0000
      3 CAL        -1.4730    0.5190    3.3860 C.3       1 9ER1        0.0000
      4 CAH        -2.4910    0.8790    1.1540 C.2       1 9ER1        0.0000
      5 CAI        -3.8030    0.6540    1.5180 C.2       1 9ER1        0.0000
      6 CAD        -4.7020    0.1470    0.5980 C.2       1 9ER1        0.0000
      7 CAB        -6.1340   -0.0960    1.0020 C.3       1 9ER1        0.0000
      8 CAA        -7.0620    0.7460    0.1230 C.3       1 9ER1        0.0000
      9 CAC        -6.4690   -1.5780    0.8250 C.3       1 9ER1        0.0000
     10 CAE        -4.2930   -0.1380   -0.6930 C.2       1 9ER1        0.0000
     11 CAF        -2.9840    0.0830   -1.0690 C.2       1 9ER1        0.0000
     12 CBE        -2.5390   -0.2280   -2.4740 C.3       1 9ER1        0.0000
     13 CBF        -2.8840   -1.6810   -2.8090 C.3       1 9ER1        0.0000
     14 CBG        -3.2550    0.7050   -3.4540 C.3       1 9ER1        0.0000
     15 CAG        -2.0740    0.5990   -0.1470 C.2       1 9ER1        0.0000
     16 CAM        -0.6660    0.8380   -0.5440 C.2       1 9ER1        0.0000
     17 NAQ         0.3600    0.2750    0.0920 N.2       1 9ER1        0.0000
     18 CAN        -0.3350    1.6340   -1.5760 C.2       1 9ER1        0.0000
     19 SAO         1.4210    1.6540   -1.7180 S.3       1 9ER1        0.0000
     20 CAP         1.5480    0.5590   -0.3450 C.2       1 9ER1        0.0000
     21 NAR         2.7330    0.0730    0.1840 N.pl3     1 9ER1        0.0000
     22 CAS         4.0150    0.4710   -0.4040 C.3       1 9ER1        0.0000
     23 CAT         4.5220    1.7370    0.2890 C.3       1 9ER1        0.0000
     24 NAU         5.8080    2.1360   -0.3010 N.3       1 9ER1        0.0000
     25 CAV         6.2110    3.4680    0.1680 C.3       1 9ER1        0.0000
     26 CAW         6.8490    1.1400   -0.0150 C.3       1 9ER1        0.0000
     27 CAX         2.7040   -0.8370    1.3310 C.3       1 9ER1        0.0000
     28 CAY         2.6330   -2.2600    0.8410 C.2       1 9ER1        0.0000
     29 CBD         1.4060   -2.8670    0.6210 C.2       1 9ER1        0.0000
     30 CBC         1.3890   -4.1780    0.1700 C.2       1 9ER1        0.0000
     31 CBB         2.5880   -4.8320   -0.0430 C.2       1 9ER1        0.0000
     32 NBA         3.7370   -4.2240    0.1780 N.2       1 9ER1        0.0000
     33 CAZ         3.7910   -2.9760    0.6010 C.2       1 9ER1        0.0000
     34 H1         -1.2440    3.2340    3.3050 H         1 9ER1        0.0000
     35 H2         -1.9800    3.4840    1.7040 H         1 9ER1        0.0000
     36 H3         -2.9440    2.7860    3.0280 H         1 9ER1        0.0000
     37 H4         -0.5200    1.4800    1.7090 H         1 9ER1        0.0000
     38 H5         -2.4650    0.4700    3.8350 H         1 9ER1        0.0000
     39 H6         -1.1600   -0.4810    3.0860 H         1 9ER1        0.0000
     40 H7         -0.7650    0.9190    4.1120 H         1 9ER1        0.0000
     41 H8         -4.1280    0.8750    2.5240 H         1 9ER1        0.0000
     42 H9         -6.2690    0.1850    2.0460 H         1 9ER1        0.0000
     43 H10        -6.9260    0.4650   -0.9220 H         1 9ER1        0.0000
     44 H11        -8.0970    0.5700    0.4150 H         1 9ER1        0.0000
     45 H12        -6.8230    1.8010    0.2490 H         1 9ER1        0.0000
     46 H13        -5.8080   -2.1780    1.4510 H         1 9ER1        0.0000
     47 H14        -7.5050   -1.7540    1.1170 H         1 9ER1        0.0000
     48 H15        -6.3340   -1.8590   -0.2200 H         1 9ER1        0.0000
     49 H16        -4.9980   -0.5380   -1.4060 H         1 9ER1        0.0000
     50 H17        -1.4620   -0.0820   -2.5560 H         1 9ER1        0.0000
     51 H18        -3.9610   -1.8270   -2.7280 H         1 9ER1        0.0000
     52 H19        -2.5620   -1.9060   -3.8260 H         1 9ER1        0.0000
     53 H20        -2.3740   -2.3450   -2.1110 H         1 9ER1        0.0000
     54 H21        -4.3320    0.5590   -3.3720 H         1 9ER1        0.0000
     55 H22        -3.0100    1.7390   -3.2150 H         1 9ER1        0.0000
     56 H23        -2.9340    0.4800   -4.4710 H         1 9ER1        0.0000
     57 H24        -1.0270    2.1690   -2.2090 H         1 9ER1        0.0000
     58 H25         4.7400   -0.3320   -0.2700 H         1 9ER1        0.0000
     59 H26         3.8810    0.6670   -1.4680 H         1 9ER1        0.0000
     60 H27         3.7970    2.5400    0.1550 H         1 9ER1        0.0000
     61 H28         4.6550    1.5410    1.3530 H         1 9ER1        0.0000
     62 H30         6.3120    3.4570    1.2530 H         1 9ER1        0.0000
     63 H31         7.1660    3.7390   -0.2830 H         1 9ER1        0.0000
     64 H32         5.4540    4.1980   -0.1180 H         1 9ER1        0.0000
     65 H33         6.5560    0.1770   -0.4340 H         1 9ER1        0.0000
     66 H34         7.7900    1.4590   -0.4620 H         1 9ER1        0.0000
     67 H35         6.9740    1.0440    1.0640 H         1 9ER1        0.0000
     68 H36         3.6070   -0.7020    1.9250 H         1 9ER1        0.0000
     69 H37         1.8290   -0.6210    1.9450 H         1 9ER1        0.0000
     70 H38         0.4850   -2.3310    0.7960 H         1 9ER1        0.0000
     71 H39         0.4520   -4.6820   -0.0120 H         1 9ER1        0.0000
     72 H40         2.5840   -5.8530   -0.3940 H         1 9ER1        0.0000
     73 H41         4.7510   -2.5090    0.7650 H         1 9ER1        0.0000
     74 HN          5.6891    2.1822   -1.3029 H         1 9ER1        0.0000
@<TRIPOS>BOND
     1   12   14 1
     2   12   13 1
     3   11   12 1
     4    7    9 1
     5   10   11 2
     6    6   10 1
     7    7    8 1
     8   11   15 1
     9    6    7 1
    10    5    6 2
    11   16   18 2
    12   18   19 1
    13   15   16 1
    14    4   15 2
    15   16   17 1
    16    4    5 1
    17   19   20 1
    18   29   30 2
    19   30   31 1
    20    2    4 1
    21   28   29 1
    22   17   20 2
    23   20   21 1
    24   31   32 2
    25    1    2 1
    26    2    3 1
    27   21   27 1
    28   21   22 1
    29   27   28 1
    30   28   33 2
    31   22   23 1
    32   32   33 1
    33   23   24 1
    34   24   25 1
    35   24   26 1
    36    1   34 1
    37    1   35 1
    38    1   36 1
    39    2   37 1
    40    3   38 1
    41    3   39 1
    42    3   40 1
    43    5   41 1
    44    7   42 1
    45    8   43 1
    46    8   44 1
    47    8   45 1
    48    9   46 1
    49    9   47 1
    50    9   48 1
    51   10   49 1
    52   12   50 1
    53   13   51 1
    54   13   52 1
    55   13   53 1
    56   14   54 1
    57   14   55 1
    58   14   56 1
    59   18   57 1
    60   22   58 1
    61   22   59 1
    62   23   60 1
    63   23   61 1
    64   25   62 1
    65   25   63 1
    66   25   64 1
    67   26   65 1
    68   26   66 1
    69   26   67 1
    70   27   68 1
    71   27   69 1
    72   29   70 1
    73   30   71 1
    74   31   72 1
    75   33   73 1
    76   74   24 1
@<TRIPOS>SUBSTRUCTURE
     1 9ER1        1 RESIDUE           4 A     9ER     0 ROOT
