# created with PyMOL 2.3.5
@<TRIPOS>MOLECULE
A2G
30 30 1                 
SMALL
USER_CHARGES
@<TRIPOS>ATOM
1	  O5	-1.252	-1.038	-0.470	O.3	1	A2G0	0.000	
2	  C1	0.092	-1.175	-0.005	C.3	1	A2G0	0.000	
3	  O1	0.084	-1.632	1.349	O.3	1	A2G0	0.000	
4	  C2	0.798	0.181	-0.082	C.3	1	A2G0	0.000	
5	  N2	2.158	0.055	0.449	N.pl3	1	A2G0	0.000	
6	  C3	0.016	1.203	0.749	C.3	1	A2G0	0.000	
7	  O3	0.627	2.489	0.624	O.3	1	A2G0	0.000	
8	  C4	-1.425	1.268	0.234	C.3	1	A2G0	0.000	
9	  O4	-1.428	1.730	-1.118	O.3	1	A2G0	0.000	
10	  C5	-2.045	-0.130	0.298	C.3	1	A2G0	0.000	
11	  C6	-3.465	-0.085	-0.271	C.3	1	A2G0	0.000	
12	  O6	-4.085	-1.362	-0.105	O.3	1	A2G0	0.000	
13	  C7	3.158	-0.365	-0.351	C.2	1	A2G0	0.000	
14	  O7	2.932	-0.639	-1.511	O.2	1	A2G0	0.000	
15	  C8	4.556	-0.494	0.195	C.3	1	A2G0	0.000	
16	  H1	0.620	-1.896	-0.629	 H	1	A2G0	0.000	
17	 HO1	-0.350	-2.488	1.472	 H	1	A2G0	0.000	
18	  H2	0.841	0.511	-1.120	 H	1	A2G0	0.000	
19	 HN2	2.338	0.275	1.377	 H	1	A2G0	0.000	
20	  H3	0.016	0.898	1.796	 H	1	A2G0	0.000	
21	 HO3	0.183	3.186	1.125	 H	1	A2G0	0.000	
22	  H4	-2.003	1.953	0.854	 H	1	A2G0	0.000	
23	 HO4	-2.310	1.796	-1.510	 H	1	A2G0	0.000	
24	  H5	-2.079	-0.465	1.335	 H	1	A2G0	0.000	
25	 H61	-4.044	0.671	0.258	 H	1	A2G0	0.000	
26	 H81	4.564	-0.206	1.247	 H	1	A2G0	0.000	
27	 H82	4.890	-1.527	0.099	 H	1	A2G0	0.000	
28	 H83	5.227	0.158	-0.365	 H	1	A2G0	0.000	
29	 H62	-3.424	0.164	-1.331	 H	1	A2G0	0.000	
30	 HO6	-4.989	-1.407	-0.444	 H	1	A2G0	0.000	
@<TRIPOS>BOND
1 1 10 1
2 1 2 1
3 2 4 1
4 2 16 1
5 2 3 1
6 3 17 1
7 4 6 1
8 4 18 1
9 4 5 1
10 5 19 1
11 6 8 1
12 6 7 1
13 6 20 1
14 7 21 1
15 8 9 1
16 8 22 1
17 9 23 1
18 8 10 1
19 10 11 1
20 10 24 1
21 11 12 1
22 11 25 1
23 5 13 1
24 13 14 2
25 13 15 1
26 15 26 1
27 15 27 1
28 15 28 1
29 11 29 1
30 12 30 1
@<TRIPOS>SUBSTRUCTURE
1	A2G0	1	GROUP	1 ****	A2G
