# created with PyMOL 2.3.5
@<TRIPOS>MOLECULE
2U8
46 48 1                 
SMALL
USER_CHARGES
@<TRIPOS>ATOM
1	  C1	-3.217	-0.298	-0.089	C.2	1	2U80	0.000	
2	  N1	3.093	-0.257	0.267	N.pl3	1	2U80	0.000	
3	  O1	-0.116	3.144	0.915	O.3	1	2U80	0.000	
4	  C2	-3.227	-1.464	-0.857	C.2	1	2U80	0.000	
5	  O2	3.155	-2.378	-0.387	O.co2	1	2U80	0.000	
6	  C3	-4.356	0.067	0.630	C.2	1	2U80	0.000	
7	  O3	4.924	-1.629	0.723	O.3	1	2U80	0.000	
8	  C4	-2.040	0.516	-0.034	C.1	1	2U80	0.000	
9	  C5	-4.364	-2.244	-0.905	C.2	1	2U80	0.000	
10	  C6	-5.492	-1.873	-0.195	C.2	1	2U80	0.000	
11	  C7	-5.484	-0.725	0.577	C.2	1	2U80	0.000	
12	  C8	-6.717	-0.329	1.348	C.3	1	2U80	0.000	
13	  C9	-1.076	1.184	0.011	C.1	1	2U80	0.000	
14	 C10	0.134	2.021	0.067	C.3	1	2U80	0.000	
15	 C11	0.460	2.522	-1.339	C.3	1	2U80	0.000	
16	 C12	0.737	1.304	-2.228	C.3	1	2U80	0.000	
17	 C13	1.979	0.592	-1.700	C.3	1	2U80	0.000	
18	 C14	1.752	0.077	-0.276	C.3	1	2U80	0.000	
19	 C15	1.267	1.210	0.646	C.3	1	2U80	0.000	
20	 C16	2.551	2.042	0.844	C.3	1	2U80	0.000	
21	 C17	3.637	0.944	0.923	C.3	1	2U80	0.000	
22	 C18	3.705	-1.455	0.181	C.2	1	2U80	0.000	
23	 C19	5.523	-2.945	0.592	C.3	1	2U80	0.000	
24	  H1	-0.844	3.707	0.617	 H	1	2U80	0.000	
25	  H2	-2.348	-1.754	-1.412	 H	1	2U80	0.000	
26	  H3	-4.354	0.967	1.226	 H	1	2U80	0.000	
27	  H4	-4.374	-3.145	-1.500	 H	1	2U80	0.000	
28	  H5	-6.379	-2.487	-0.236	 H	1	2U80	0.000	
29	  H6	-6.685	-0.779	2.341	 H	1	2U80	0.000	
30	  H7	-6.754	0.756	1.442	 H	1	2U80	0.000	
31	  H8	-7.604	-0.679	0.820	 H	1	2U80	0.000	
32	  H9	-0.387	3.082	-1.736	 H	1	2U80	0.000	
33	 H10	1.341	3.162	-1.307	 H	1	2U80	0.000	
34	 H11	-0.116	0.625	-2.195	 H	1	2U80	0.000	
35	 H12	0.909	1.630	-3.253	 H	1	2U80	0.000	
36	 H13	2.215	-0.249	-2.352	 H	1	2U80	0.000	
37	 H14	2.817	1.289	-1.699	 H	1	2U80	0.000	
38	 H15	1.084	-0.785	-0.264	 H	1	2U80	0.000	
39	 H16	0.965	0.794	1.607	 H	1	2U80	0.000	
40	 H17	2.721	2.702	-0.007	 H	1	2U80	0.000	
41	 H18	2.507	2.608	1.774	 H	1	2U80	0.000	
42	 H19	3.871	0.724	1.964	 H	1	2U80	0.000	
43	 H20	4.535	1.276	0.401	 H	1	2U80	0.000	
44	 H21	4.881	-3.685	1.070	 H	1	2U80	0.000	
45	 H22	5.634	-3.190	-0.464	 H	1	2U80	0.000	
46	 H23	6.502	-2.949	1.071	 H	1	2U80	0.000	
@<TRIPOS>BOND
1 11 12 1
2 10 11 2
3 6 11 1
4 9 10 1
5 1 6 2
6 4 9 2
7 1 4 1
8 1 8 1
9 8 13 3
10 15 16 1
11 16 17 1
12 13 14 1
13 14 15 1
14 17 18 1
15 3 14 1
16 14 19 1
17 18 19 1
18 2 18 1
19 19 20 1
20 5 22 2
21 2 22 1
22 2 21 1
23 20 21 1
24 7 22 1
25 7 23 1
26 3 24 1
27 4 25 1
28 6 26 1
29 9 27 1
30 10 28 1
31 12 29 1
32 12 30 1
33 12 31 1
34 15 32 1
35 15 33 1
36 16 34 1
37 16 35 1
38 17 36 1
39 17 37 1
40 18 38 1
41 19 39 1
42 20 40 1
43 20 41 1
44 21 42 1
45 21 43 1
46 23 44 1
47 23 45 1
48 23 46 1
@<TRIPOS>SUBSTRUCTURE
1	2U80	1	GROUP	1 ****	2U8
