# created with PyMOL 2.3.5
@<TRIPOS>MOLECULE
A4R
73 77 1 0 0
SMALL
USER_CHARGES


@<TRIPOS>ATOM
      1 C1         -5.9620   -2.8100    1.1680 C.3       1 A4R1        0.0000
      2 C2         -6.0360   -1.3760    0.7110 C.2       1 A4R1        0.0000
      3 N3         -7.1070   -0.6310    0.6720 N.2       1 A4R1        0.0000
      4 N4         -6.8050    0.5390    0.2310 N.2       1 A4R1        0.0000
      5 C5         -5.5280    0.5930   -0.0320 C.2       1 A4R1        0.0000
      6 C6         -4.7750    1.7850   -0.5670 C.3       1 A4R1        0.0000
      7 C7         -5.3560    2.1870   -1.9240 C.3       1 A4R1        0.0000
      8 C8         -4.9090    2.9530    0.4120 C.3       1 A4R1        0.0000
      9 N9         -5.0020   -0.6190    0.2700 N.pl3     1 A4R1        0.0000
     10 C10        -3.6020   -1.0300    0.1390 C.3       1 A4R1        0.0000
     11 C11        -3.1700   -0.9060   -1.3250 C.3       1 A4R1        0.0000
     12 C12        -1.6640   -1.1960   -1.4260 C.3       1 A4R1        0.0000
     13 C13        -1.3780   -2.4900   -0.6300 C.3       1 A4R1        0.0000
     14 C14        -1.1030   -2.0140    0.8120 C.3       1 A4R1        0.0000
     15 C15        -1.2480   -0.4760    0.7560 C.3       1 A4R1        0.0000
     16 C16        -2.7240   -0.1330    1.0150 C.3       1 A4R1        0.0000
     17 N17        -0.9580   -0.1330   -0.6620 N.3       1 A4R1        0.0000
     18 C18         0.4860   -0.1660   -0.9270 C.3       1 A4R1        0.0000
     19 C19         1.1430    1.0810   -0.3310 C.3       1 A4R1        0.0000
     20 C20         2.6470    1.0470   -0.6070 C.3       1 A4R1        0.0000
     21 N21         3.2480   -0.0850    0.1030 N.pl3     1 A4R1        0.0000
     22 C22         4.3960   -0.6300   -0.3470 C.2       1 A4R1        0.0000
     23 O23         4.9310   -0.1830   -1.3390 O.2       1 A4R1        0.0000
     24 C24         5.0150   -1.7940    0.3830 C.3       1 A4R1        0.0000
     25 C25         4.0930   -3.0360    0.3020 C.3       1 A4R1        0.0000
     26 C26         5.0810   -4.2090    0.5240 C.3       1 A4R1        0.0000
     27 C27         6.3570   -3.7760   -0.2270 C.3       1 A4R1        0.0000
     28 C28         6.3150   -2.2410   -0.3160 C.3       1 A4R1        0.0000
     29 C29         3.2750    2.3300   -0.1280 C.2       1 A4R1        0.0000
     30 C30         3.5980    3.3650   -0.9060 C.2       1 A4R1        0.0000
     31 C31         4.1640    4.4400   -0.2420 C.2       1 A4R1        0.0000
     32 C32         4.3010    4.2780    1.0750 C.2       1 A4R1        0.0000
     33 S33         3.6870    2.6970    1.5420 S.3       1 A4R1        0.0000
     34 H1         -6.0360   -3.4700    0.3040 H         1 A4R1        0.0000
     35 H2         -5.0130   -2.9810    1.6760 H         1 A4R1        0.0000
     36 H3         -6.7840   -3.0160    1.8540 H         1 A4R1        0.0000
     37 H4         -3.7230    1.5270   -0.6830 H         1 A4R1        0.0000
     38 H5         -4.8120    3.0490   -2.3100 H         1 A4R1        0.0000
     39 H6         -5.2610    1.3550   -2.6210 H         1 A4R1        0.0000
     40 H7         -6.4090    2.4440   -1.8070 H         1 A4R1        0.0000
     41 H8         -4.4950    2.6660    1.3790 H         1 A4R1        0.0000
     42 H9         -4.3650    3.8150    0.0250 H         1 A4R1        0.0000
     43 H10        -5.9620    3.2110    0.5290 H         1 A4R1        0.0000
     44 H11        -3.4970   -2.0660    0.4600 H         1 A4R1        0.0000
     45 H12        -3.7220   -1.6240   -1.9310 H         1 A4R1        0.0000
     46 H13        -3.3720    0.1050   -1.6810 H         1 A4R1        0.0000
     47 H14        -1.3260   -1.2550   -2.4610 H         1 A4R1        0.0000
     48 H15        -2.2460   -3.1490   -0.6530 H         1 A4R1        0.0000
     49 H16        -0.5030   -2.9990   -1.0350 H         1 A4R1        0.0000
     50 H17        -1.8360   -2.4400    1.4980 H         1 A4R1        0.0000
     51 H18        -0.0940   -2.2910    1.1160 H         1 A4R1        0.0000
     52 H19        -0.5800    0.0260    1.4560 H         1 A4R1        0.0000
     53 H20        -2.9050    0.9120    0.7650 H         1 A4R1        0.0000
     54 H21        -2.9590   -0.3050    2.0650 H         1 A4R1        0.0000
     55 H23         0.9190   -1.0570   -0.4730 H         1 A4R1        0.0000
     56 H24         0.6580   -0.1870   -2.0030 H         1 A4R1        0.0000
     57 H25         0.7100    1.9720   -0.7850 H         1 A4R1        0.0000
     58 H26         0.9710    1.1020    0.7450 H         1 A4R1        0.0000
     59 H27         2.8180    0.9360   -1.6780 H         1 A4R1        0.0000
     60 H28         2.8200   -0.4420    0.8970 H         1 A4R1        0.0000
     61 H29         5.2120   -1.5300    1.4220 H         1 A4R1        0.0000
     62 H30         3.3400   -3.0110    1.0890 H         1 A4R1        0.0000
     63 H31         3.6250   -3.1060   -0.6800 H         1 A4R1        0.0000
     64 H32         5.2880   -4.3380    1.5860 H         1 A4R1        0.0000
     65 H33         4.6800   -5.1300    0.1000 H         1 A4R1        0.0000
     66 H34         7.2410   -4.0940    0.3260 H         1 A4R1        0.0000
     67 H35         6.3660   -4.2090   -1.2270 H         1 A4R1        0.0000
     68 H36         6.3040   -1.9270   -1.3600 H         1 A4R1        0.0000
     69 H37         7.1790   -1.8130    0.1930 H         1 A4R1        0.0000
     70 H38         3.4300    3.3650   -1.9730 H         1 A4R1        0.0000
     71 H39         4.4710    5.3410   -0.7510 H         1 A4R1        0.0000
     72 H40         4.7210    5.0070    1.7520 H         1 A4R1        0.0000
     73 HN         -1.3372    0.7751   -0.8894 H         1 A4R1        0.0000
@<TRIPOS>BOND
     1   31   32 2
     2   32   33 1
     3   30   31 1
     4   29   30 2
     5   29   33 1
     6    6    7 1
     7   20   29 1
     8    6    8 1
     9    5    6 1
    10   11   12 1
    11   10   11 1
    12   12   17 1
    13   12   13 1
    14   19   20 1
    15   20   21 1
    16   18   19 1
    17   17   18 1
    18    4    5 2
    19    5    9 1
    20   15   17 1
    21    3    4 1
    22   21   22 1
    23   13   14 1
    24    9   10 1
    25    2    9 1
    26   10   16 1
    27    2    3 2
    28   22   23 2
    29   22   24 1
    30   15   16 1
    31   14   15 1
    32    1    2 1
    33   24   28 1
    34   24   25 1
    35   27   28 1
    36   25   26 1
    37   26   27 1
    38    1   34 1
    39    1   35 1
    40    1   36 1
    41    6   37 1
    42    7   38 1
    43    7   39 1
    44    7   40 1
    45    8   41 1
    46    8   42 1
    47    8   43 1
    48   10   44 1
    49   11   45 1
    50   11   46 1
    51   12   47 1
    52   13   48 1
    53   13   49 1
    54   14   50 1
    55   14   51 1
    56   15   52 1
    57   16   53 1
    58   16   54 1
    59   18   55 1
    60   18   56 1
    61   19   57 1
    62   19   58 1
    63   20   59 1
    64   21   60 1
    65   24   61 1
    66   25   62 1
    67   25   63 1
    68   26   64 1
    69   26   65 1
    70   27   66 1
    71   27   67 1
    72   28   68 1
    73   28   69 1
    74   30   70 1
    75   31   71 1
    76   32   72 1
    77   73   17 1
@<TRIPOS>SUBSTRUCTURE
     1 A4R1        1 RESIDUE           4 A     A4R     0 ROOT
