# created with PyMOL 2.3.5
@<TRIPOS>MOLECULE
DO5
49 52 1 0 0
SMALL
USER_CHARGES


@<TRIPOS>ATOM
      1 C10         2.3190    1.7310   -1.3210 C.3       1 DO51        0.0000
      2 C11         0.9180    1.2790   -1.7470 C.3       1 DO51        0.0000
      3 C13        -1.0850    1.6960   -0.4040 C.2       1 DO51        0.0000
      4 C15        -2.7780    0.1620    0.5120 C.2       1 DO51        0.0000
      5 C16        -2.6550   -0.9460    1.3290 C.2       1 DO51        0.0000
      6 C17        -3.4110   -2.0760    1.0800 C.2       1 DO51        0.0000
      7 C18        -4.2910   -2.0980    0.0130 C.2       1 DO51        0.0000
      8 C20        -4.4140   -0.9880   -0.8050 C.2       1 DO51        0.0000
      9 C21        -3.6570    0.1410   -0.5550 C.2       1 DO51        0.0000
     10 C22        -2.8910    2.5810    1.0460 C.3       1 DO51        0.0000
     11 C23        -2.0640    3.8000    1.4600 C.3       1 DO51        0.0000
     12 C26         0.6040    0.1760    0.5070 C.3       1 DO51        0.0000
     13 C27         2.0080    0.6340    0.9170 C.3       1 DO51        0.0000
     14 C1          6.1080   -0.3600    0.8280 C.2       1 DO51        0.0000
     15 C2          4.9040   -0.0720    0.2060 C.2       1 DO51        0.0000
     16 C3          4.1730   -1.0930   -0.3950 C.2       1 DO51        0.0000
     17 C4          4.6530   -2.3920   -0.3680 C.2       1 DO51        0.0000
     18 C5          5.8560   -2.6730    0.2540 C.2       1 DO51        0.0000
     19 C6          6.5820   -1.6590    0.8500 C.2       1 DO51        0.0000
     20 O7          3.0380   -0.5590   -0.9350 O.3       1 DO51        0.0000
     21 C8          2.8920    0.7300   -0.3220 C.3       1 DO51        0.0000
     22 O9          4.2280    1.1040    0.0460 O.3       1 DO51        0.0000
     23 N12         0.1020    1.0730   -0.5430 N.pl3     1 DO51        0.0000
     24 C14        -1.9580    1.3970    0.7870 C.3       1 DO51        0.0000
     25 CL         -5.2400   -3.5170   -0.3010 Cl        1 DO51        0.0000
     26 O24        -3.6210    2.8820   -0.1450 O.3       1 DO51        0.0000
     27 O25        -1.4510    2.4970   -1.2380 O.2       1 DO51        0.0000
     28 H1          2.9670    1.7830   -2.1960 H         1 DO51        0.0000
     29 H2          2.2580    2.7150   -0.8550 H         1 DO51        0.0000
     30 H3          0.4610    2.0470   -2.3720 H         1 DO51        0.0000
     31 H4          0.9890    0.3450   -2.3050 H         1 DO51        0.0000
     32 H5         -1.9670   -0.9280    2.1620 H         1 DO51        0.0000
     33 H6         -3.3140   -2.9410    1.7180 H         1 DO51        0.0000
     34 H7         -5.1010   -1.0050   -1.6380 H         1 DO51        0.0000
     35 H8         -3.7530    1.0070   -1.1930 H         1 DO51        0.0000
     36 H9         -3.5880    2.3270    1.8450 H         1 DO51        0.0000
     37 H10        -2.7330    4.6180    1.7310 H         1 DO51        0.0000
     38 H11        -1.4390    3.5430    2.3150 H         1 DO51        0.0000
     39 H12        -1.4320    4.1100    0.6280 H         1 DO51        0.0000
     40 H13         0.6480   -0.8440    0.1250 H         1 DO51        0.0000
     41 H14        -0.0600    0.2150    1.3710 H         1 DO51        0.0000
     42 H15         1.9460    1.6110    1.3960 H         1 DO51        0.0000
     43 H16         2.4360   -0.0860    1.6140 H         1 DO51        0.0000
     44 H17         6.6770    0.4300    1.2960 H         1 DO51        0.0000
     45 H18         4.0880   -3.1870   -0.8340 H         1 DO51        0.0000
     46 H19         6.2280   -3.6860    0.2740 H         1 DO51        0.0000
     47 H20         7.5210   -1.8820    1.3340 H         1 DO51        0.0000
     48 H21        -1.3320    1.2290    1.6630 H         1 DO51        0.0000
     49 H22        -4.2340    3.6250   -0.0530 H         1 DO51        0.0000
@<TRIPOS>BOND
     1   17   18 2
     2   16   17 1
     3   18   19 1
     4   10   26 1
     5   16   20 1
     6   20   21 1
     7    2   23 1
     8    1    2 1
     9   15   16 2
    10   10   11 1
    11   10   24 1
    12    3   24 1
    13    4   24 1
    14   12   23 1
    15    3   23 1
    16   14   19 2
    17    1   21 1
    18   12   13 1
    19    3   27 2
    20   13   21 1
    21   21   22 1
    22    4    9 2
    23    8    9 1
    24   14   15 1
    25   15   22 1
    26    4    5 1
    27    7    8 2
    28    5    6 2
    29    6    7 1
    30    7   25 1
    31    1   28 1
    32    1   29 1
    33    2   30 1
    34    2   31 1
    35    5   32 1
    36    6   33 1
    37    8   34 1
    38    9   35 1
    39   10   36 1
    40   11   37 1
    41   11   38 1
    42   11   39 1
    43   12   40 1
    44   12   41 1
    45   13   42 1
    46   13   43 1
    47   14   44 1
    48   17   45 1
    49   18   46 1
    50   19   47 1
    51   24   48 1
    52   26   49 1
@<TRIPOS>SUBSTRUCTURE
     1 DO51        1 RESIDUE           4 A     DO5     0 ROOT
