@<TRIPOS>MOLECULE
9SC
30 31 1 0 0
SMALL
NO_CHARGES


@<TRIPOS>ATOM
      1 N1        104.0870  117.4730  112.7970 N.pl3     1 9SC520      0.0000
      2 N3         98.4520  121.8020  121.7700 N.ar      1 9SC520      0.0000
      3 C4        105.6860  116.7190  111.0640 C.ar      1 9SC520      0.0000
      4 C5        106.6790  116.9880  110.1350 C.ar      1 9SC520      0.0000
      5 C6        107.1210  118.2700  109.9500 C.ar      1 9SC520      0.0000
      6 C7        104.4130  117.5270  114.2080 C.3       1 9SC520      0.0000
      7 C8        103.1820  118.1240  114.8810 C.3       1 9SC520      0.0000
      8 C10       102.9180  116.7080  112.4030 C.3       1 9SC520      0.0000
      9 C13       101.1600  117.1490  117.6890 C.3       1 9SC520      0.0000
     10 C15        99.1540  117.9460  120.2030 C.2       1 9SC520      0.0000
     11 C17        96.8030  118.4620  120.3640 C.2       1 9SC520      0.0000
     12 C20        99.3860  119.2510  120.7430 C.3       1 9SC520      0.0000
     13 C21        95.8600  120.7460  121.2800 C.ar      1 9SC520      0.0000
     14 C22        96.0170  121.7810  122.1160 C.ar      1 9SC520      0.0000
     15 C1        106.5870  119.2990  110.6800 C.ar      1 9SC520      0.0000
     16 C11       100.8510  117.8890  115.3180 C.3       1 9SC520      0.0000
     17 C12       101.1860  118.3440  116.7390 C.3       1 9SC520      0.0000
     18 C14       101.2200  117.6450  119.1320 C.3       1 9SC520      0.0000
     19 C16        97.8190  117.6500  120.0530 C.2       1 9SC520      0.0000
     20 C18        96.9140  119.8260  120.9260 C.ar      1 9SC520      0.0000
     21 C19        98.2660  120.2880  121.1420 C.ar      1 9SC520      0.0000
     22 C2        105.5970  119.0600  111.6140 C.ar      1 9SC520      0.0000
     23 C23        97.1980  122.4850  122.2500 C.ar      1 9SC520      0.0000
     24 C3        105.1270  117.7530  111.8220 C.ar      1 9SC520      0.0000
     25 C9        101.7280  117.1700  113.2450 C.3       1 9SC520      0.0000
     26 N2        102.0080  117.2940  114.6670 N.4       1 9SC520      0.0000
     27 O1        100.1810  117.0590  119.8630 O.3       1 9SC520      0.0000
     28 O2A        97.2270  123.7700  122.8020 O.3       1 9SC520      0.0000
     29 CL1       107.1760  120.9650  110.4250 C         1 9SC520      0.0000
     30 CL2       104.9240  120.4260  112.5470 C         1 9SC520      0.0000
@<TRIPOS>BOND
     1    1    6 1
     2    1    8 1
     3    1   24 1
     4    2   21 ar
     5    2   23 ar
     6    3    4 ar
     7    3   24 ar
     8    4    5 ar
     9    5   15 ar
    10    6    7 1
    11    7   26 1
    12    8   25 1
    13    9   17 1
    14    9   18 1
    15   10   12 1
    16   10   19 2
    17   10   27 1
    18   11   19 2
    19   11   20 1
    20   12   21 1
    21   13   14 ar
    22   13   20 ar
    23   14   23 ar
    24   15   22 ar
    25   16   17 1
    26   16   26 1
    27   18   27 1
    28   20   21 ar
    29   22   24 ar
    30   23   28 1
    31   25   26 1
@<TRIPOS>SUBSTRUCTURE
     1 9SC520      1 RESIDUE           4 R     9SC     0 ROOT
