# created with PyMOL 2.3.5
@<TRIPOS>MOLECULE
OLM
59 62 1                 
SMALL
USER_CHARGES
@<TRIPOS>ATOM
1	  C4	1.696	1.857	-0.103	C.2	1	OLM0	0.000	
2	  C3	0.496	1.792	0.574	C.2	1	OLM0	0.000	
3	  O3	-5.415	-2.295	-0.588	O.3	1	OLM0	0.000	
4	  C2	-0.026	0.567	0.947	C.2	1	OLM0	0.000	
5	  O2	-1.600	-2.356	1.440	O.3	1	OLM0	0.000	
6	  C1	-1.337	0.502	1.686	C.3	1	OLM0	0.000	
7	  O1	-3.103	-3.072	-0.032	O.co2	1	OLM0	0.000	
8	 C20	-3.463	4.828	1.893	C.3	1	OLM0	0.000	
9	 C19	-3.722	3.345	1.619	C.3	1	OLM0	0.000	
10	 C18	-2.858	2.886	0.442	C.3	1	OLM0	0.000	
11	 C15	-3.112	1.426	0.172	C.2	1	OLM0	0.000	
12	  N6	-4.022	0.952	-0.641	N.2	1	OLM0	0.000	
13	 C16	-3.974	-0.380	-0.643	C.2	1	OLM0	0.000	
14	 C22	-4.856	-1.299	-1.447	C.3	1	OLM0	0.000	
15	 C23	-4.026	-1.976	-2.540	C.3	1	OLM0	0.000	
16	 C24	-5.984	-0.490	-2.090	C.3	1	OLM0	0.000	
17	 C17	-2.980	-0.762	0.215	C.2	1	OLM0	0.000	
18	 C21	-2.570	-2.134	0.529	C.2	1	OLM0	0.000	
19	  N1	-2.437	0.402	0.723	N.pl3	1	OLM0	0.000	
20	  C7	0.652	-0.601	0.644	C.2	1	OLM0	0.000	
21	  C6	1.854	-0.548	-0.032	C.2	1	OLM0	0.000	
22	  C5	2.384	0.684	-0.411	C.2	1	OLM0	0.000	
23	  C8	3.671	0.747	-1.144	C.2	1	OLM0	0.000	
24	  C9	3.774	1.492	-2.315	C.2	1	OLM0	0.000	
25	 C10	4.974	1.548	-2.994	C.2	1	OLM0	0.000	
26	 C11	6.081	0.865	-2.519	C.2	1	OLM0	0.000	
27	 C12	5.998	0.121	-1.360	C.2	1	OLM0	0.000	
28	 C13	4.795	0.059	-0.657	C.2	1	OLM0	0.000	
29	 C14	4.702	-0.731	0.589	C.2	1	OLM0	0.000	
30	  N5	5.701	-1.441	1.171	N.pl3	1	OLM0	0.000	
31	  N4	5.128	-2.010	2.321	N.2	1	OLM0	0.000	
32	  N3	3.897	-1.629	2.353	N.2	1	OLM0	0.000	
33	  N2	3.635	-0.875	1.347	N.2	1	OLM0	0.000	
34	  H1	2.100	2.815	-0.398	 H	1	OLM0	0.000	
35	  H2	-0.038	2.700	0.813	 H	1	OLM0	0.000	
36	  H3	-6.034	-1.946	0.068	 H	1	OLM0	0.000	
37	  H4	-1.363	-3.278	1.613	 H	1	OLM0	0.000	
38	  H5	-1.345	-0.371	2.338	 H	1	OLM0	0.000	
39	  H6	-1.461	1.404	2.286	 H	1	OLM0	0.000	
40	  H7	-3.716	5.411	1.008	 H	1	OLM0	0.000	
41	  H8	-4.079	5.155	2.731	 H	1	OLM0	0.000	
42	  H9	-2.411	4.975	2.136	 H	1	OLM0	0.000	
43	 H10	-3.469	2.762	2.504	 H	1	OLM0	0.000	
44	 H11	-4.774	3.199	1.376	 H	1	OLM0	0.000	
45	 H12	-3.111	3.469	-0.443	 H	1	OLM0	0.000	
46	 H13	-1.805	3.033	0.685	 H	1	OLM0	0.000	
47	 H14	-3.690	-1.227	-3.257	 H	1	OLM0	0.000	
48	 H15	-3.161	-2.462	-2.090	 H	1	OLM0	0.000	
49	 H16	-4.637	-2.720	-3.051	 H	1	OLM0	0.000	
50	 H17	-6.576	-0.008	-1.312	 H	1	OLM0	0.000	
51	 H18	-5.558	0.270	-2.746	 H	1	OLM0	0.000	
52	 H19	-6.622	-1.155	-2.672	 H	1	OLM0	0.000	
53	 H20	0.240	-1.555	0.938	 H	1	OLM0	0.000	
54	 H21	2.382	-1.460	-0.268	 H	1	OLM0	0.000	
55	 H22	2.915	2.027	-2.692	 H	1	OLM0	0.000	
56	 H23	5.050	2.127	-3.903	 H	1	OLM0	0.000	
57	 H24	7.016	0.915	-3.059	 H	1	OLM0	0.000	
58	 H25	6.865	-0.410	-0.995	 H	1	OLM0	0.000	
59	 H26	6.615	-1.536	0.859	 H	1	OLM0	0.000	
@<TRIPOS>BOND
1 14 15 1
2 7 18 2
3 5 18 1
4 17 18 1
5 14 16 1
6 3 14 1
7 13 14 1
8 13 17 2
9 17 19 1
10 12 13 1
11 31 32 2
12 30 31 1
13 32 33 1
14 6 19 1
15 11 19 1
16 4 6 1
17 29 30 1
18 11 12 2
19 10 11 1
20 2 4 2
21 4 20 1
22 29 33 2
23 1 2 1
24 28 29 1
25 20 21 2
26 1 22 2
27 9 10 1
28 21 22 1
29 22 23 1
30 23 28 2
31 27 28 1
32 23 24 1
33 8 9 1
34 26 27 2
35 24 25 2
36 25 26 1
37 1 34 1
38 2 35 1
39 3 36 1
40 5 37 1
41 6 38 1
42 6 39 1
43 8 40 1
44 8 41 1
45 8 42 1
46 9 43 1
47 9 44 1
48 10 45 1
49 10 46 1
50 15 47 1
51 15 48 1
52 15 49 1
53 16 50 1
54 16 51 1
55 16 52 1
56 20 53 1
57 21 54 1
58 24 55 1
59 25 56 1
60 26 57 1
61 27 58 1
62 30 59 1
@<TRIPOS>SUBSTRUCTURE
1	OLM0	1	GROUP	1 ****	OLM
