@<TRIPOS>MOLECULE
89F
49 52 1 0 0 
SMALL
USER_CHARGES


@<TRIPOS>ATOM
  1 C7     -29.1260    -4.1380    38.3700 C.ar  1 Q89F   0.1015 
  2 C6     -31.6200    -5.4200    37.3860 C.3   1 Q89F   0.3335 
  3 H6     -31.6448    -4.7076    38.2106 H     1 Q89F   0.0800 
  4 C10    -29.3470    -5.5660    38.3640 C.ar  1 Q89F  -0.1435 
  5 C9     -32.1520    -5.3510    34.9140 C.ar  1 Q89F  -0.1500 
  6 H9     -32.7033    -6.2740    35.0162 H     1 Q89F   0.1500 
  7 C4     -31.3420    -3.5340    33.5410 C.ar  1 Q89F  -0.1500 
  8 H4     -31.2627    -3.0457    32.5810 H     1 Q89F   0.1500 
  9 C2     -31.5310    -4.7730    36.0370 C.ar  1 Q89F  -0.1435 
 10 N1     -32.8830    -6.1970    37.4470 N.3   1 Q89F  -0.8100 
 11 N2     -35.1350    -7.5150    38.6890 N.4   1 Q89F  -0.9590 
 12 H2     -34.9292    -7.4309    39.6742 H     1 Q89F   0.4500 
 13 C1     -30.8320    -3.6080    35.9180 C.ar  1 Q89F   0.1015 
 14 C3     -30.7330    -2.9750    34.6660 C.ar  1 Q89F  -0.1500 
 15 H3     -30.1823    -2.0505    34.5743 H     1 Q89F   0.1500 
 16 C5     -36.4210    -8.2280    38.5110 C.3   1 Q89F   0.2630 
 17 H51    -36.6422    -8.3183    37.4475 H     1 Q89F   0.0800 
 18 H52    -37.2175    -7.6686    39.0016 H     1 Q89F   0.0800 
 19 H53    -36.3496    -9.2218    38.9529 H     1 Q89F   0.0800 
 20 C8     -31.7310    -4.8270    30.9150 C.3   1 Q89F  -0.0100 
 21 H81    -32.0651    -5.1695    29.9356 H     1 Q89F   0.0800 
 22 H82    -30.7247    -5.1995    31.1064 H     1 Q89F   0.0800 
 23 H83    -31.7252    -3.7372    30.9362 H     1 Q89F   0.0800 
 24 C11    -35.2430    -6.1590    38.1190 C.3   1 Q89F   0.3430 
 25 H111   -35.9759    -5.5900    38.6909 H     1 Q89F   0.0800 
 26 H112   -35.5701    -6.2340    37.0820 H     1 Q89F   0.0800 
 27 C12    -32.0540    -4.7280    33.6650 C.ar  1 Q89F   0.1015 
 28 C13    -28.1310    -3.6410    39.2190 C.ar  1 Q89F  -0.1500 
 29 H13    -27.9436    -2.5776    39.2416 H     1 Q89F   0.1500 
 30 C14    -32.7060    -7.4870    38.1050 C.3   1 Q89F   0.1100 
 31 H141   -32.4054    -7.3258    39.1402 H     1 Q89F   0.0800 
 32 H142   -31.9328    -8.0536    37.5862 H     1 Q89F   0.0800 
 33 C15    -27.3780    -4.4760    40.0330 C.ar  1 Q89F  -0.1500 
 34 H15    -26.6177    -4.0577    40.6760 H     1 Q89F   0.1500 
 35 C16    -28.5730    -6.3790    39.1990 C.ar  1 Q89F  -0.1500 
 36 H16    -28.7383    -7.4463    39.2014 H     1 Q89F   0.1500 
 37 C17    -33.8990    -5.4320    38.1670 C.3   1 Q89F   0.1100 
 38 H171   -34.0044    -4.4503    37.7052 H     1 Q89F   0.0800 
 39 H172   -33.5910    -5.3136    39.2059 H     1 Q89F   0.0800 
 40 C18    -34.0260    -8.2800    38.0750 C.3   1 Q89F   0.3430 
 41 H181   -34.2812    -8.5032    37.0391 H     1 Q89F   0.0800 
 42 H182   -33.8917    -9.2115    38.6249 H     1 Q89F   0.0800 
 43 C19    -27.5970    -5.8390    40.0240 C.ar  1 Q89F  -0.1500 
 44 H19    -27.0087    -6.4848    40.6590 H     1 Q89F   0.1500 
 45 C20    -30.4010    -6.2770    37.5200 C.3   1 Q89F  -0.0165 
 46 H201   -29.9927    -6.4796    36.5299 H     1 Q89F   0.0800 
 47 H202   -30.6728    -7.2170    38.0003 H     1 Q89F   0.0800 
 48 S1     -32.8710    -5.4570    32.2040 S.3   1 Q89F  -0.3315 
 49 S2     -29.9720    -2.8220    37.3330 S.3   1 Q89F  -0.2030 
@<TRIPOS>BOND
  1   1   4  ar  
  2   1  28  ar  
  3   1  49  1   
  4   2   3  1   
  5   2   9  1   
  6   2  10  1   
  7   2  45  1   
  8   4  35  ar  
  9   4  45  1   
 10   5   6  1   
 11   5   9  ar  
 12   5  27  ar  
 13   7   8  1   
 14   7  14  ar  
 15   7  27  ar  
 16   9  13  ar  
 17  10  30  1   
 18  10  37  1   
 19  11  12  1   
 20  11  16  1   
 21  11  24  1   
 22  11  40  1   
 23  13  14  ar  
 24  13  49  1   
 25  14  15  1   
 26  16  17  1   
 27  16  18  1   
 28  16  19  1   
 29  20  21  1   
 30  20  22  1   
 31  20  23  1   
 32  20  48  1   
 33  24  25  1   
 34  24  26  1   
 35  24  37  1   
 36  27  48  1   
 37  28  29  1   
 38  28  33  ar  
 39  30  31  1   
 40  30  32  1   
 41  30  40  1   
 42  33  34  1   
 43  33  43  ar  
 44  35  36  1   
 45  35  43  ar  
 46  37  38  1   
 47  37  39  1   
 48  40  41  1   
 49  40  42  1   
 50  43  44  1   
 51  45  46  1   
 52  45  47  1   
@<TRIPOS>SUBSTRUCTURE
  1 Q89F   2 GROUP 4 L **** 0

# MOE 2019.01 (io_trps.svl 2018.10)
