# created with PyMOL 2.3.5
@<TRIPOS>MOLECULE
89F
50 53 1 0 0
SMALL
USER_CHARGES


@<TRIPOS>ATOM
      1 H01         1.4860   -4.4170    0.9070 H         1 89F1        0.0000
      2 C7         -3.1590    0.4050    0.4000 C.2       1 89F1        0.0000
      3 C6         -0.2850   -0.7130   -0.4960 C.3       1 89F1        0.0000
      4 C10        -2.7390   -0.7810   -0.1320 C.2       1 89F1        0.0000
      5 C9          1.2980    1.1080   -0.5800 C.2       1 89F1        0.0000
      6 C4          1.0890    3.2360    0.4820 C.2       1 89F1        0.0000
      7 C2          0.0710    0.6790   -0.0500 C.2       1 89F1        0.0000
      8 N1          0.9060   -1.5590   -0.3430 N.3       1 89F1        0.0000
      9 N2          2.3320   -3.8850    0.4710 N.3       1 89F1        0.0000
     10 C1         -0.6240    1.5330    0.7660 C.2       1 89F1        0.0000
     11 C3         -0.1050    2.8190    1.0110 C.2       1 89F1        0.0000
     12 C5          3.5230   -4.7310    0.6240 C.3       1 89F1        0.0000
     13 C8          3.5650    4.5410   -0.3830 C.3       1 89F1        0.0000
     14 C11         2.0360   -3.6450   -0.9480 C.3       1 89F1        0.0000
     15 C12         1.8100    2.3620   -0.3240 C.2       1 89F1        0.0000
     16 C13        -4.3630    0.9840    0.0190 C.2       1 89F1        0.0000
     17 C14         1.2030   -1.7990    1.0760 C.3       1 89F1        0.0000
     18 C15        -5.1610    0.3330   -0.9050 C.2       1 89F1        0.0000
     19 C16        -3.5520   -1.4430   -1.0450 C.2       1 89F1        0.0000
     20 C17         0.7470   -2.8280   -1.0660 C.3       1 89F1        0.0000
     21 C18         2.4920   -2.6150    1.1940 C.3       1 89F1        0.0000
     22 C19        -4.7560   -0.8810   -1.4270 C.2       1 89F1        0.0000
     23 C20        -1.4170   -1.3710    0.2250 C.3       1 89F1        0.0000
     24 S1          3.3570    2.8520   -1.0100 S.3       1 89F1        0.0000
     25 S2         -2.1320    1.1840    1.5950 S.3       1 89F1        0.0000
     26 H1         -0.5350   -0.6740   -1.5560 H         1 89F1        0.0000
     27 H2          1.8590    0.4330   -1.2090 H         1 89F1        0.0000
     28 H3          1.4640    4.2280    0.6890 H         1 89F1        0.0000
     29 H6         -0.6660    3.4990    1.6360 H         1 89F1        0.0000
     30 H7          3.6810   -4.9480    1.6800 H         1 89F1        0.0000
     31 H8          3.3790   -5.6640    0.0790 H         1 89F1        0.0000
     32 H9          4.3940   -4.2090    0.2260 H         1 89F1        0.0000
     33 H10         2.7390    5.1620   -0.7300 H         1 89F1        0.0000
     34 H11         3.5760    4.5260    0.7070 H         1 89F1        0.0000
     35 H12         4.5060    4.9520   -0.7500 H         1 89F1        0.0000
     36 H13         2.8580   -3.0940   -1.4040 H         1 89F1        0.0000
     37 H14         1.9100   -4.5990   -1.4600 H         1 89F1        0.0000
     38 H15        -4.6720    1.9300    0.4380 H         1 89F1        0.0000
     39 H16         1.3290   -0.8440    1.5870 H         1 89F1        0.0000
     40 H17         0.3800   -2.3490    1.5320 H         1 89F1        0.0000
     41 H18        -6.0980    0.7710   -1.2160 H         1 89F1        0.0000
     42 H19        -3.2440   -2.3940   -1.4550 H         1 89F1        0.0000
     43 H20        -0.0810   -3.3910   -0.6350 H         1 89F1        0.0000
     44 H21         0.5400   -2.6250   -2.1170 H         1 89F1        0.0000
     45 H22         2.6980   -2.8190    2.2450 H         1 89F1        0.0000
     46 H23         3.3200   -2.0530    0.7630 H         1 89F1        0.0000
     47 H24        -5.3850   -1.3950   -2.1380 H         1 89F1        0.0000
     48 H25        -1.4240   -2.4320   -0.0250 H         1 89F1        0.0000
     49 H26        -1.2610   -1.2640    1.2980 H         1 89F1        0.0000
     50 HN          1.6907   -1.0674   -0.7463 H         1 89F1        0.0000
@<TRIPOS>BOND
     1    2   25 1
     2    3    7 1
     3    3   26 1
     4    2    4 1
     5    4   23 1
     6    5   15 2
     7    5   27 1
     8    6   28 1
     9    5    7 1
    10    7   10 2
    11    3    8 1
    12    1    9 1
    13    9   14 1
    14    9   21 1
    15   10   11 1
    16    6   11 2
    17   11   29 1
    18    9   12 1
    19   12   30 1
    20   12   31 1
    21   12   32 1
    22   13   33 1
    23   13   34 1
    24   13   35 1
    25   14   20 1
    26   14   36 1
    27   14   37 1
    28    6   15 1
    29   15   24 1
    30    2   16 2
    31   16   38 1
    32    8   17 1
    33   17   39 1
    34   17   40 1
    35   16   18 1
    36   18   41 1
    37    4   19 2
    38   19   42 1
    39    8   20 1
    40   20   43 1
    41   20   44 1
    42   17   21 1
    43   21   45 1
    44   21   46 1
    45   18   22 2
    46   19   22 1
    47   22   47 1
    48    3   23 1
    49   23   48 1
    50   23   49 1
    51   13   24 1
    52   10   25 1
    53   50    8 1
@<TRIPOS>SUBSTRUCTURE
     1 89F1        1 RESIDUE           4 A     89F     0 ROOT
