# created with PyMOL 2.3.5
@<TRIPOS>MOLECULE
CSD
16 15 1                 
SMALL
USER_CHARGES
@<TRIPOS>ATOM
1	   N	0.633	1.636	0.268	N.3	1	CSD0	0.000	
2	  CA	0.872	0.203	0.482	C.3	1	CSD0	0.000	
3	  CB	-0.179	-0.609	-0.279	C.3	1	CSD0	0.000	
4	  SG	-1.833	-0.175	0.327	S.2	1	CSD0	0.000	
5	   C	2.246	-0.158	-0.021	C.2	1	CSD0	0.000	
6	   O	2.807	0.561	-0.814	O.co2	1	CSD0	0.000	
7	 OXT	2.847	-1.278	0.411	O.3	1	CSD0	0.000	
8	 OD1	-2.165	1.138	-0.103	O.2	1	CSD0	0.000	
9	 OD2	-2.747	-1.053	-0.516	O.3	1	CSD0	0.000	
10	   H	1.273	2.195	0.811	 H	1	CSD0	0.000	
11	  H2	0.690	1.870	-0.712	 H	1	CSD0	0.000	
12	  HA	0.804	-0.022	1.546	 H	1	CSD0	0.000	
13	 HB2	-0.111	-0.384	-1.343	 H	1	CSD0	0.000	
14	 HB3	-0.001	-1.673	-0.120	 H	1	CSD0	0.000	
15	 HXT	3.728	-1.467	0.060	 H	1	CSD0	0.000	
16	 HD2	-3.687	-0.946	-0.318	 H	1	CSD0	0.000	
@<TRIPOS>BOND
1 1 2 1
2 1 10 1
3 1 11 1
4 2 3 1
5 2 5 1
6 2 12 1
7 3 4 1
8 3 13 1
9 3 14 1
10 4 8 2
11 4 9 1
12 5 6 2
13 5 7 1
14 7 15 1
15 9 16 1
@<TRIPOS>SUBSTRUCTURE
1	CSD0	1	GROUP	1 ****	CSD
