# created with PyMOL 2.3.5
@<TRIPOS>MOLECULE
ACM
9 8 1                   
SMALL
USER_CHARGES
@<TRIPOS>ATOM
1	  C1	0.058	0.000	-0.030	C.2	1	ACM0	0.000	
2	   O	1.244	0.000	-0.284	O.2	1	ACM0	0.000	
3	   N	-0.845	0.000	-1.030	N.pl3	1	ACM0	0.000	
4	  C2	-0.404	0.000	1.403	C.3	1	ACM0	0.000	
5	 HN1	-0.547	0.000	-1.953	 H	1	ACM0	0.000	
6	 HN2	-1.793	0.000	-0.826	 H	1	ACM0	0.000	
7	 H21	0.462	0.000	2.065	 H	1	ACM0	0.000	
8	 H22	-1.004	0.890	1.591	 H	1	ACM0	0.000	
9	 H23	-1.004	-0.890	1.591	 H	1	ACM0	0.000	
@<TRIPOS>BOND
1 1 2 2
2 1 3 1
3 1 4 1
4 3 5 1
5 3 6 1
6 4 7 1
7 4 8 1
8 4 9 1
@<TRIPOS>SUBSTRUCTURE
1	ACM0	1	GROUP	1 ****	ACM
