# created with PyMOL 2.3.5
@<TRIPOS>MOLECULE
AQD
55 57 1 0 0
SMALL
USER_CHARGES


@<TRIPOS>ATOM
      1 H01         0.3660   -0.0210   -0.7660 H         1 AQD1        0.0000
      2 CAB         4.5880   -3.5410    0.0540 C.3       1 AQD1        0.0000
      3 OAR         3.4300   -2.7070    0.1160 O.3       1 AQD1        0.0000
      4 CAW         3.6310   -1.3670    0.0430 C.2       1 AQD1        0.0000
      5 CAK         4.9120   -0.8630   -0.0910 C.2       1 AQD1        0.0000
      6 CAV         5.1120    0.5100   -0.1660 C.2       1 AQD1        0.0000
      7 NAP         6.4000    1.0170   -0.3010 N.pl3     1 AQD1        0.0000
      8 CAA         7.5440    0.1040   -0.3650 C.3       1 AQD1        0.0000
      9 CAU         4.0250    1.3820   -0.1050 C.2       1 AQD1        0.0000
     10 CLA         4.2860    3.0950   -0.2000 Cl        1 AQD1        0.0000
     11 CAL         2.7560    0.8940    0.0260 C.2       1 AQD1        0.0000
     12 CAX         2.5390   -0.4860    0.0980 C.2       1 AQD1        0.0000
     13 CAS         1.1710   -1.0130    0.2350 C.2       1 AQD1        0.0000
     14 OAD         0.9850   -2.2130    0.3010 O.2       1 AQD1        0.0000
     15 NAQ         0.1250   -0.1650    0.2870 N.pl3     1 AQD1        0.0000
     16 CAZ        -1.2360   -0.6890    0.4240 C.3       1 AQD1        0.0000
     17 CAY        -2.1900    0.4020    0.9550 C.3       1 AQD1        0.0000
     18 CAC        -1.5980    1.7870    0.6860 C.3       1 AQD1        0.0000
     19 CAM        -1.8350   -1.0300   -0.9660 C.3       1 AQD1        0.0000
     20 CAN        -3.3540   -0.8900   -0.6960 C.3       1 AQD1        0.0000
     21 NBA        -3.4680    0.2530    0.2350 N.3       1 AQD1        0.0000
     22 CAO        -4.5820    0.0590    1.1730 C.3       1 AQD1        0.0000
     23 CAT        -5.8880    0.1570    0.4280 C.2       1 AQD1        0.0000
     24 CAI        -6.5150    1.3820    0.2900 C.2       1 AQD1        0.0000
     25 CAG        -7.7140    1.4710   -0.3930 C.2       1 AQD1        0.0000
     26 CAF        -8.2860    0.3370   -0.9370 C.2       1 AQD1        0.0000
     27 CAH        -7.6590   -0.8870   -0.7990 C.2       1 AQD1        0.0000
     28 CAJ        -6.4570   -0.9760   -0.1210 C.2       1 AQD1        0.0000
     29 H1          5.2550   -3.2990    0.8820 H         1 AQD1        0.0000
     30 H2          4.2870   -4.5870    0.1230 H         1 AQD1        0.0000
     31 H3          5.1060   -3.3740   -0.8900 H         1 AQD1        0.0000
     32 H4          5.7560   -1.5350   -0.1370 H         1 AQD1        0.0000
     33 H5          6.5420    1.9750   -0.3530 H         1 AQD1        0.0000
     34 H6          8.4630    0.6790   -0.4700 H         1 AQD1        0.0000
     35 H7          7.5880   -0.4870    0.5500 H         1 AQD1        0.0000
     36 H8          7.4310   -0.5610   -1.2220 H         1 AQD1        0.0000
     37 H9          1.9190    1.5750    0.0720 H         1 AQD1        0.0000
     38 H10         0.2730    0.7920    0.2350 H         1 AQD1        0.0000
     39 H11        -1.2470   -1.5640    1.0730 H         1 AQD1        0.0000
     40 H12        -2.3490    0.2660    2.0250 H         1 AQD1        0.0000
     41 H13        -2.2830    2.5520    1.0510 H         1 AQD1        0.0000
     42 H14        -0.6420    1.8800    1.2000 H         1 AQD1        0.0000
     43 H15        -1.4480    1.9150   -0.3860 H         1 AQD1        0.0000
     44 H16        -1.5050   -0.3140   -1.7190 H         1 AQD1        0.0000
     45 H17        -1.5820   -2.0480   -1.2610 H         1 AQD1        0.0000
     46 H18        -3.8870   -0.6790   -1.6230 H         1 AQD1        0.0000
     47 H19        -3.7420   -1.7980   -0.2340 H         1 AQD1        0.0000
     48 H21        -4.5000   -0.9240    1.6360 H         1 AQD1        0.0000
     49 H22        -4.5450    0.8280    1.9450 H         1 AQD1        0.0000
     50 H23        -6.0680    2.2680    0.7150 H         1 AQD1        0.0000
     51 H24        -8.2030    2.4280   -0.5000 H         1 AQD1        0.0000
     52 H25        -9.2220    0.4070   -1.4700 H         1 AQD1        0.0000
     53 H26        -8.1060   -1.7740   -1.2240 H         1 AQD1        0.0000
     54 H27        -5.9660   -1.9320   -0.0160 H         1 AQD1        0.0000
     55 HN         -3.6379    1.0920   -0.3010 H         1 AQD1        0.0000
@<TRIPOS>BOND
     1    2    3 1
     2    2   29 1
     3    2   30 1
     4    2   31 1
     5    3    4 1
     6    4    5 1
     7    4   12 2
     8    5    6 2
     9    5   32 1
    10    6    7 1
    11    6    9 1
    12    7    8 1
    13    7   33 1
    14    8   34 1
    15    8   35 1
    16    8   36 1
    17    9   10 1
    18    9   11 2
    19   11   37 1
    20   11   12 1
    21   12   13 1
    22   13   14 2
    23    1   15 1
    24   13   15 1
    25   15   38 1
    26   15   16 1
    27   16   19 1
    28   16   39 1
    29   16   17 1
    30   17   21 1
    31   17   40 1
    32   17   18 1
    33   18   41 1
    34   18   42 1
    35   18   43 1
    36   19   44 1
    37   19   45 1
    38   19   20 1
    39   20   46 1
    40   20   47 1
    41   20   21 1
    42   21   22 1
    43   22   48 1
    44   22   49 1
    45   22   23 1
    46   23   28 2
    47   23   24 1
    48   24   50 1
    49   24   25 2
    50   25   26 1
    51   25   51 1
    52   26   27 2
    53   26   52 1
    54   27   28 1
    55   27   53 1
    56   28   54 1
    57   55   21 1
@<TRIPOS>SUBSTRUCTURE
     1 AQD1        1 RESIDUE           4 A     AQD     0 ROOT
