@<TRIPOS>MOLECULE
EP5
30 33 1 0 0
SMALL
NO_CHARGES


@<TRIPOS>ATOM
      1 N2         94.8920   43.8950   63.9950 N.1       1 EP5489      0.0000
      2 C10        95.1120   45.0370   63.9760 C.1       1 EP5489      0.0000
      3 C7         95.3680   46.2910   63.8670 C.ar      1 EP5489      0.0000
      4 C8         95.0780   46.9680   62.6840 C.ar      1 EP5489      0.0000
      5 C9         95.3560   48.3320   62.5740 C.ar      1 EP5489      0.0000
      6 C6         95.9400   46.9850   64.9340 C.ar      1 EP5489      0.0000
      7 C5         96.2230   48.3460   64.8250 C.ar      1 EP5489      0.0000
      8 C4         95.9310   49.0380   63.6460 C.ar      1 EP5489      0.0000
      9 N1         96.2260   50.4130   63.5370 N.pl3     1 EP5489      0.0000
     10 C          96.8380   50.9450   62.3290 C.3       1 EP5489      0.0000
     11 C1         98.1760   51.5260   62.7520 C.3       1 EP5489      0.0000
     12 C3         95.9570   51.3810   64.6030 C.3       1 EP5489      0.0000
     13 C2         97.2660   52.0970   64.9160 C.3       1 EP5489      0.0000
     14 N          97.8190   52.6150   63.6600 N.am      1 EP5489      0.0000
     15 C11        97.9880   53.9070   63.3170 C.2       1 EP5489      0.0000
     16 O          98.2590   54.2520   62.1760 O.2       1 EP5489      0.0000
     17 C12        97.8480   55.0270   64.3230 C.3       1 EP5489      0.0000
     18 O1         96.6010   55.6810   64.0680 O.3       1 EP5489      0.0000
     19 C13        96.2290   56.8910   64.6060 C.ar      1 EP5489      0.0000
     20 C14        94.8620   57.1210   64.8050 C.ar      1 EP5489      0.0000
     21 C15        94.4560   58.3390   65.3420 C.ar      1 EP5489      0.0000
     22 C16        95.4470   59.3770   65.6890 C.ar      1 EP5489      0.0000
     23 C17        96.7930   59.1110   65.4730 C.ar      1 EP5489      0.0000
     24 C18        97.1760   57.8810   64.9360 C.ar      1 EP5489      0.0000
     25 C20        93.1390   58.9150   65.6940 C.ar      1 EP5489      0.0000
     26 C19        93.4290   60.1880   66.1910 C.ar      1 EP5489      0.0000
     27 N3         94.7670   60.4310   66.1840 N.ar      1 EP5489      0.0000
     28 C21        91.7640   58.2950   65.5290 C.3       1 EP5489      0.0000
     29 C22        91.6840   56.8700   66.0600 C.3       1 EP5489      0.0000
     30 N4         90.2990   56.5100   66.4070 N.4       1 EP5489      0.0000
@<TRIPOS>BOND
     1    1    2 3
     2    2    3 1
     3    3    4 ar
     4    3    6 ar
     5    4    5 ar
     6    5    8 ar
     7    6    7 ar
     8    7    8 ar
     9    8    9 1
    10    9   10 1
    11    9   12 1
    12   10   11 1
    13   11   14 1
    14   12   13 1
    15   13   14 1
    16   14   15 am
    17   15   16 2
    18   15   17 1
    19   17   18 1
    20   18   19 1
    21   19   20 ar
    22   19   24 ar
    23   20   21 ar
    24   21   22 ar
    25   21   25 ar
    26   22   23 ar
    27   22   27 ar
    28   23   24 ar
    29   25   26 ar
    30   25   28 1
    31   26   27 ar
    32   28   29 1
    33   29   30 1
@<TRIPOS>SUBSTRUCTURE
     1 EP5489      1 RESIDUE           4 S     EP5     0 ROOT
