# created with PyMOL 2.3.5
@<TRIPOS>MOLECULE
HTO
26 25 1                 
SMALL
USER_CHARGES
@<TRIPOS>ATOM
1	  C1	-0.569	-0.397	-2.765	C.3	1	HTO0	0.000	
2	  O1	0.190	-0.402	-3.975	O.3	1	HTO0	0.000	
3	  C2	0.379	-0.304	-1.568	C.3	1	HTO0	0.000	
4	  O2	1.142	0.899	-1.657	O.3	1	HTO0	0.000	
5	  C3	-0.434	-0.298	-0.272	C.3	1	HTO0	0.000	
6	  O3	-1.316	0.825	-0.268	O.3	1	HTO0	0.000	
7	  C4	0.514	-0.206	0.924	C.3	1	HTO0	0.000	
8	  C5	-0.299	-0.200	2.220	C.3	1	HTO0	0.000	
9	  C6	0.649	-0.108	3.417	C.3	1	HTO0	0.000	
10	  C7	-0.164	-0.102	4.713	C.3	1	HTO0	0.000	
11	 H11	-1.151	-1.316	-2.697	 H	1	HTO0	0.000	
12	 H12	-1.242	0.460	-2.762	 H	1	HTO0	0.000	
13	 HO1	-0.443	-0.461	-4.703	 H	1	HTO0	0.000	
14	  H2	1.051	-1.162	-1.570	 H	1	HTO0	0.000	
15	 HO2	0.510	1.632	-1.651	 H	1	HTO0	0.000	
16	  H3	-1.016	-1.217	-0.204	 H	1	HTO0	0.000	
17	 HO3	-0.762	1.615	-0.330	 H	1	HTO0	0.000	
18	 H41	1.096	0.712	0.856	 H	1	HTO0	0.000	
19	 H42	1.186	-1.064	0.922	 H	1	HTO0	0.000	
20	 H51	-0.881	-1.119	2.288	 H	1	HTO0	0.000	
21	 H52	-0.972	0.657	2.223	 H	1	HTO0	0.000	
22	 H61	1.231	0.810	3.349	 H	1	HTO0	0.000	
23	 H62	1.321	-0.965	3.415	 H	1	HTO0	0.000	
24	 H71	0.511	-0.036	5.566	 H	1	HTO0	0.000	
25	 H72	-0.837	0.755	4.716	 H	1	HTO0	0.000	
26	 H73	-0.746	-1.020	4.781	 H	1	HTO0	0.000	
@<TRIPOS>BOND
1 1 2 1
2 1 3 1
3 1 11 1
4 1 12 1
5 2 13 1
6 3 4 1
7 3 5 1
8 3 14 1
9 4 15 1
10 5 6 1
11 5 7 1
12 5 16 1
13 6 17 1
14 7 8 1
15 7 18 1
16 7 19 1
17 8 9 1
18 8 20 1
19 8 21 1
20 9 10 1
21 9 22 1
22 9 23 1
23 10 24 1
24 10 25 1
25 10 26 1
@<TRIPOS>SUBSTRUCTURE
1	HTO0	1	GROUP	1 ****	HTO
