# created with PyMOL 2.3.5
@<TRIPOS>MOLECULE
FT4
49 52 1 0 0
SMALL
USER_CHARGES


@<TRIPOS>ATOM
      1 C1          2.0100    1.6180    2.4670 C.3       1 FT41        0.0000
      2 N2          1.7290    1.5450    1.0310 N.3       1 FT41        0.0000
      3 C3          0.3740    1.2440    0.5640 C.3       1 FT41        0.0000
      4 C5         -0.5930    2.3160    1.0760 C.3       1 FT41        0.0000
      5 C6         -1.9530    2.1450    0.3890 C.3       1 FT41        0.0000
      6 C7         -2.3760    0.7000    0.5090 C.2       1 FT41        0.0000
      7 C8         -1.5310   -0.3050    0.8260 C.2       1 FT41        0.0000
      8 C9         -0.0600   -0.1260    1.1000 C.3       1 FT41        0.0000
      9 C10        -2.3100   -1.5260    0.8430 C.2       1 FT41        0.0000
     10 C11        -1.9780   -2.8590    1.1040 C.2       1 FT41        0.0000
     11 C12        -2.9960   -3.7780    1.0270 C.2       1 FT41        0.0000
     12 C13        -4.2930   -3.4150    0.7060 C.2       1 FT41        0.0000
     13 C14        -4.6490   -2.1030    0.4440 C.2       1 FT41        0.0000
     14 C15        -3.6380   -1.1480    0.5150 C.2       1 FT41        0.0000
     15 N16        -3.6390    0.2030    0.3210 N.pl3     1 FT41        0.0000
     16 C17        -4.8140    1.0020   -0.0350 C.3       1 FT41        0.0000
     17 C18        -4.9340    1.0780   -1.5360 C.2       1 FT41        0.0000
     18 O19        -5.9440    1.7640   -2.0940 O.3       1 FT41        0.0000
     19 O20        -4.1210    0.5230   -2.2360 O.co2     1 FT41        0.0000
     20 S21         2.9440    1.8030   -0.0640 S.O2      1 FT41        0.0000
     21 O22         2.3160    2.2120   -1.2710 O.2       1 FT41        0.0000
     22 O23         3.9280    2.5810    0.6030 O.2       1 FT41        0.0000
     23 C24         3.6870    0.2400   -0.3960 C.2       1 FT41        0.0000
     24 C25         3.2070   -0.5500   -1.4240 C.2       1 FT41        0.0000
     25 C26         3.7890   -1.7750   -1.6850 C.2       1 FT41        0.0000
     26 C27         4.8550   -2.2130   -0.9160 C.2       1 FT41        0.0000
     27 C29         5.3350   -1.4210    0.1130 C.2       1 FT41        0.0000
     28 C30         4.7550   -0.1940    0.3690 C.2       1 FT41        0.0000
     29 F28         5.4240   -3.4110   -1.1710 F         1 FT41        0.0000
     30 H3          0.3589    1.2303   -0.5258 H         1 FT41        0.0000
     31 H52        -0.7145    2.2109    2.1541 H         1 FT41        0.0000
     32 H53        -0.1931    3.3044    0.8498 H         1 FT41        0.0000
     33 H62        -1.8693    2.4167   -0.6633 H         1 FT41        0.0000
     34 H63        -2.6910    2.7838    0.8742 H         1 FT41        0.0000
     35 H92         0.1221   -0.1747    2.1736 H         1 FT41        0.0000
     36 H93         0.5042   -0.9113    0.5970 H         1 FT41        0.0000
     37 H11        -0.9691   -3.1521    1.3542 H         1 FT41        0.0000
     38 H12        -2.7776   -4.8173    1.2232 H         1 FT41        0.0000
     39 H13        -5.0526   -4.1812    0.6584 H         1 FT41        0.0000
     40 H14        -5.6647   -1.8325    0.1958 H         1 FT41        0.0000
     41 H172       -5.7087    0.5360    0.3778 H         1 FT41        0.0000
     42 H173       -4.7069    2.0073    0.3724 H         1 FT41        0.0000
     43 H25         2.3760   -0.2089   -2.0236 H         1 FT41        0.0000
     44 H26         3.4132   -2.3913   -2.4883 H         1 FT41        0.0000
     45 H29         6.1634   -1.7628    0.7158 H         1 FT41        0.0000
     46 H30         5.1353    0.4269    1.1666 H         1 FT41        0.0000
     47 H15         3.0639    1.8504    2.6202 H         1 FT41        0.0000
     48 H16         1.3968    2.3984    2.9177 H         1 FT41        0.0000
     49 H17         1.7780    0.6597    2.9318 H         1 FT41        0.0000
@<TRIPOS>BOND
     1   20   21 2
     2   20   22 2
     3   27   28 2
     4   23   28 1
     5   26   27 1
     6   20   23 1
     7    2   20 1
     8   23   24 2
     9   26   29 1
    10   25   26 2
    11   24   25 1
    12    1    2 1
    13    2    3 1
    14    3    4 1
    15    3    8 1
    16    4    5 1
    17    7    8 1
    18    5    6 1
    19    6    7 2
    20    7    9 1
    21    6   15 1
    22    9   10 2
    23    9   14 1
    24   15   16 1
    25   14   15 1
    26   17   19 2
    27   10   11 1
    28   16   17 1
    29   17   18 1
    30   13   14 2
    31   11   12 2
    32   12   13 1
    33   30    3 1
    34   31    4 1
    35   32    4 1
    36   33    5 1
    37   34    5 1
    38   35    8 1
    39   36    8 1
    40   37   10 1
    41   38   11 1
    42   39   12 1
    43   40   13 1
    44   41   16 1
    45   42   16 1
    46   43   24 1
    47   44   25 1
    48   45   27 1
    49   46   28 1
    50   47    1 1
    51   48    1 1
    52   49    1 1
@<TRIPOS>SUBSTRUCTURE
     1 FT41        1 RESIDUE           4 A     FT4     0 ROOT
