@<TRIPOS>MOLECULE
SRO
13 14 1 0 0
SMALL
NO_CHARGES


@<TRIPOS>ATOM
      1 OH        104.1350  118.0470  110.1520 O.3       1 SRO520      0.0000
      2 CZ3       104.1710  117.0100  109.2110 C.ar      1 SRO520      0.0000
      3 CH2       105.1050  117.0860  108.1240 C.ar      1 SRO520      0.0000
      4 CZ2       105.0600  115.9100  107.1610 C.ar      1 SRO520      0.0000
      5 CE2       104.1850  114.8980  107.3680 C.ar      1 SRO520      0.0000
      6 NE1       103.9170  113.7360  106.6940 N.ar      1 SRO520      0.0000
      7 CD1       102.9840  112.9260  107.1460 C.ar      1 SRO520      0.0000
      8 CG        102.5400  113.5870  108.2630 C.ar      1 SRO520      0.0000
      9 CD2       103.2830  114.8830  108.4690 C.ar      1 SRO520      0.0000
     10 CE3       103.2860  115.9170  109.3580 C.ar      1 SRO520      0.0000
     11 CB        101.4360  113.0770  109.1870 C.3       1 SRO520      0.0000
     12 CA        100.1170  112.9800  108.4230 C.3       1 SRO520      0.0000
     13 NZ         99.1770  112.1750  109.1810 N.4       1 SRO520      0.0000
@<TRIPOS>BOND
     1    1    2 1
     2    2    3 ar
     3    2   10 ar
     4    3    4 ar
     5    4    5 ar
     6    5    6 ar
     7    5    9 ar
     8    6    7 ar
     9    7    8 ar
    10    8    9 ar
    11    8   11 1
    12    9   10 ar
    13   11   12 1
    14   12   13 1
@<TRIPOS>SUBSTRUCTURE
     1 SRO520      1 RESIDUE           4 R     SRO     0 ROOT
