@<TRIPOS>MOLECULE
SRO
13 14 1 0 0
SMALL
NO_CHARGES


@<TRIPOS>ATOM
      1 OH        100.4930  125.0510  114.9930 O.3       1 SRO476      0.0000
      2 CZ3       100.5370  123.9710  114.1630 C.ar      1 SRO476      0.0000
      3 CH2       101.4400  124.0070  113.0870 C.ar      1 SRO476      0.0000
      4 CZ2       101.5400  122.9560  112.2090 C.ar      1 SRO476      0.0000
      5 CE2       100.7180  121.8560  112.4220 C.ar      1 SRO476      0.0000
      6 NE1       100.6020  120.6840  111.7220 N.ar      1 SRO476      0.0000
      7 CD1        99.6510  119.9000  112.3190 C.ar      1 SRO476      0.0000
      8 CG         99.1320  120.5350  113.4100 C.ar      1 SRO476      0.0000
      9 CD2        99.8090  121.8020  113.4930 C.ar      1 SRO476      0.0000
     10 CE3        99.7270  122.8910  114.3750 C.ar      1 SRO476      0.0000
     11 CB         98.0720  120.0340  114.3430 C.3       1 SRO476      0.0000
     12 CA         96.9960  119.2220  113.6390 C.3       1 SRO476      0.0000
     13 NZ         96.5080  118.1360  114.4910 N.4       1 SRO476      0.0000
@<TRIPOS>BOND
     1    1    2 1
     2    2    3 ar
     3    2   10 ar
     4    3    4 ar
     5    4    5 ar
     6    5    6 ar
     7    5    9 ar
     8    6    7 ar
     9    7    8 ar
    10    8    9 ar
    11    8   11 1
    12    9   10 ar
    13   11   12 1
    14   12   13 1
@<TRIPOS>SUBSTRUCTURE
     1 SRO476      1 RESIDUE           4 R     SRO     0 ROOT
