# created with PyMOL 2.3.5
@<TRIPOS>MOLECULE
DGW
57 60 1                 
SMALL
USER_CHARGES
@<TRIPOS>ATOM
1	CLAC	2.510	2.246	0.067	Cl	1	DGW0	0.000	
2	 CAT	4.098	1.556	0.192	C.2	1	DGW0	0.000	
3	 CAH	5.189	2.370	0.440	C.2	1	DGW0	0.000	
4	 CAE	6.453	1.820	0.540	C.2	1	DGW0	0.000	
5	 CAI	6.629	0.457	0.393	C.2	1	DGW0	0.000	
6	 CAU	5.539	-0.358	0.145	C.2	1	DGW0	0.000	
7	CLAD	5.759	-2.070	-0.040	Cl	1	DGW0	0.000	
8	 CAX	4.272	0.191	0.050	C.2	1	DGW0	0.000	
9	 CBA	3.085	-0.697	-0.220	C.3	1	DGW0	0.000	
10	 CAM	2.085	-0.579	0.934	C.3	1	DGW0	0.000	
11	 CAO	0.854	-1.435	0.626	C.3	1	DGW0	0.000	
12	 CAN	2.405	-0.261	-1.521	C.3	1	DGW0	0.000	
13	 CAP	1.166	-1.126	-1.758	C.3	1	DGW0	0.000	
14	 NBB	0.240	-0.977	-0.626	N.3	1	DGW0	0.000	
15	 CAR	-1.023	-1.684	-0.882	C.3	1	DGW0	0.000	
16	 CAZ	-2.116	-1.121	0.027	C.3	1	DGW0	0.000	
17	 CAQ	-3.371	-1.952	-0.158	C.3	1	DGW0	0.000	
18	 CAY	-4.427	-1.589	0.889	C.3	1	DGW0	0.000	
19	 OAB	-5.302	-2.700	1.093	O.3	1	DGW0	0.000	
20	 CAV	-5.219	-0.403	0.379	C.2	1	DGW0	0.000	
21	 CAJ	-6.533	-0.581	-0.017	C.2	1	DGW0	0.000	
22	 CAF	-7.259	0.500	-0.483	C.2	1	DGW0	0.000	
23	 CAG	-6.672	1.750	-0.552	C.2	1	DGW0	0.000	
24	 CAS	-5.358	1.921	-0.154	C.2	1	DGW0	0.000	
25	 CAA	-4.716	3.282	-0.228	C.3	1	DGW0	0.000	
26	 CAW	-4.638	0.836	0.311	C.2	1	DGW0	0.000	
27	 CAK	-3.200	1.026	0.747	C.3	1	DGW0	0.000	
28	 CAL	-2.291	0.352	-0.286	C.3	1	DGW0	0.000	
29	  H1	5.053	3.435	0.554	 H	1	DGW0	0.000	
30	  H2	7.305	2.456	0.733	 H	1	DGW0	0.000	
31	  H3	7.617	0.028	0.470	 H	1	DGW0	0.000	
32	  H4	3.416	-1.731	-0.310	 H	1	DGW0	0.000	
33	  H5	2.550	-0.929	1.856	 H	1	DGW0	0.000	
34	  H6	1.785	0.463	1.051	 H	1	DGW0	0.000	
35	  H7	1.154	-2.478	0.524	 H	1	DGW0	0.000	
36	  H8	0.134	-1.342	1.439	 H	1	DGW0	0.000	
37	  H9	2.110	0.785	-1.444	 H	1	DGW0	0.000	
38	 H10	3.100	-0.384	-2.352	 H	1	DGW0	0.000	
39	 H11	0.672	-0.809	-2.676	 H	1	DGW0	0.000	
40	 H12	1.463	-2.171	-1.848	 H	1	DGW0	0.000	
41	 H14	-1.311	-1.547	-1.925	 H	1	DGW0	0.000	
42	 H15	-0.891	-2.747	-0.678	 H	1	DGW0	0.000	
43	 H16	-1.787	-1.218	1.062	 H	1	DGW0	0.000	
44	 H17	-3.776	-1.771	-1.153	 H	1	DGW0	0.000	
45	 H18	-3.118	-3.008	-0.060	 H	1	DGW0	0.000	
46	 H19	-3.938	-1.331	1.828	 H	1	DGW0	0.000	
47	 H20	-5.997	-2.538	1.746	 H	1	DGW0	0.000	
48	 H21	-6.990	-1.559	0.037	 H	1	DGW0	0.000	
49	 H22	-8.285	0.368	-0.794	 H	1	DGW0	0.000	
50	 H23	-7.239	2.593	-0.917	 H	1	DGW0	0.000	
51	 H24	-4.877	3.811	0.712	 H	1	DGW0	0.000	
52	 H25	-3.646	3.170	-0.402	 H	1	DGW0	0.000	
53	 H26	-5.160	3.850	-1.045	 H	1	DGW0	0.000	
54	 H27	-2.970	2.090	0.799	 H	1	DGW0	0.000	
55	 H28	-3.049	0.567	1.724	 H	1	DGW0	0.000	
56	 H29	-1.315	0.836	-0.274	 H	1	DGW0	0.000	
57	 H30	-2.733	0.461	-1.276	 H	1	DGW0	0.000	
@<TRIPOS>BOND
1 24 25 1
2 23 24 2
3 22 23 1
4 24 26 1
5 21 22 2
6 26 27 1
7 20 26 2
8 20 21 1
9 27 28 1
10 18 20 1
11 16 28 1
12 18 19 1
13 17 18 1
14 16 17 1
15 15 16 1
16 14 15 1
17 11 14 1
18 13 14 1
19 10 11 1
20 12 13 1
21 9 10 1
22 9 12 1
23 8 9 1
24 6 7 1
25 6 8 2
26 2 8 1
27 5 6 1
28 1 2 1
29 2 3 2
30 4 5 2
31 3 4 1
32 3 29 1
33 4 30 1
34 5 31 1
35 9 32 1
36 10 33 1
37 10 34 1
38 11 35 1
39 11 36 1
40 12 37 1
41 12 38 1
42 13 39 1
43 13 40 1
44 15 41 1
45 15 42 1
46 16 43 1
47 17 44 1
48 17 45 1
49 18 46 1
50 19 47 1
51 21 48 1
52 22 49 1
53 23 50 1
54 25 51 1
55 25 52 1
56 25 53 1
57 27 54 1
58 27 55 1
59 28 56 1
60 28 57 1
@<TRIPOS>SUBSTRUCTURE
1	DGW0	1	GROUP	1 ****	DGW
