# created with PyMOL 2.3.5
@<TRIPOS>MOLECULE
2GM
80 87 1                 
SMALL
USER_CHARGES
@<TRIPOS>ATOM
1	 C10	-3.143	1.270	-0.196	C.3	1	2GM0	0.000	
2	 C11	-4.410	0.610	-0.750	C.3	1	2GM0	0.000	
3	 C12	-5.565	0.892	0.162	C.2	1	2GM0	0.000	
4	 C17	-6.566	-0.081	0.218	C.2	1	2GM0	0.000	
5	 C13	-5.771	1.982	0.947	C.2	1	2GM0	0.000	
6	 C14	-6.919	2.078	1.734	C.2	1	2GM0	0.000	
7	 C15	-7.913	1.110	1.784	C.2	1	2GM0	0.000	
8	 C16	-7.731	-0.021	0.990	C.2	1	2GM0	0.000	
9	  N1	-8.405	-1.175	0.725	N.pl3	1	2GM0	0.000	
10	  C2	-7.694	-1.952	-0.177	C.2	1	2GM0	0.000	
11	  C3	-6.569	-1.345	-0.520	C.2	1	2GM0	0.000	
12	  C4	-5.401	-1.659	-1.420	C.3	1	2GM0	0.000	
13	  C5	-4.179	-0.895	-0.891	C.3	1	2GM0	0.000	
14	  N6	-3.039	-1.138	-1.786	N.3	1	2GM0	0.000	
15	  C7	-2.874	-2.573	-2.049	C.3	1	2GM0	0.000	
16	  C8	-1.804	-0.556	-1.246	C.3	1	2GM0	0.000	
17	  C9	-1.966	0.961	-1.125	C.3	1	2GM0	0.000	
18	 C18	-0.706	1.559	-0.556	C.2	1	2GM0	0.000	
19	 O19	-0.744	2.175	0.488	O.2	1	2GM0	0.000	
20	 N20	0.465	1.408	-1.206	N.pl3	1	2GM0	0.000	
21	 C21	1.691	1.988	-0.652	C.3	1	2GM0	0.000	
22	 C22	1.552	3.509	-0.557	C.3	1	2GM0	0.000	
23	 O43	2.812	1.649	-1.480	O.3	1	2GM0	0.000	
24	 C23	1.965	1.408	0.715	C.2	1	2GM0	0.000	
25	 O24	1.204	1.418	1.659	O.2	1	2GM0	0.000	
26	 N25	3.201	0.877	0.701	N.pl3	1	2GM0	0.000	
27	 C41	3.655	0.812	-0.699	C.3	1	2GM0	0.000	
28	 O42	3.572	-0.535	-1.172	O.3	1	2GM0	0.000	
29	 C40	5.110	1.276	-0.715	C.3	1	2GM0	0.000	
30	 C39	5.754	1.088	-2.097	C.3	1	2GM0	0.000	
31	 C38	7.228	0.767	-1.719	C.3	1	2GM0	0.000	
32	 C37	7.050	-0.108	-0.455	C.3	1	2GM0	0.000	
33	 N36	5.837	0.382	0.211	N.pl3	1	2GM0	0.000	
34	 C34	5.375	0.034	1.428	C.2	1	2GM0	0.000	
35	 O35	6.069	-0.623	2.176	O.2	1	2GM0	0.000	
36	 C26	3.992	0.458	1.861	C.3	1	2GM0	0.000	
37	 C27	3.294	-0.715	2.552	C.3	1	2GM0	0.000	
38	 C28	3.094	-1.834	1.563	C.2	1	2GM0	0.000	
39	 C29	4.113	-2.736	1.324	C.2	1	2GM0	0.000	
40	 C30	3.930	-3.763	0.417	C.2	1	2GM0	0.000	
41	 C31	2.726	-3.887	-0.252	C.2	1	2GM0	0.000	
42	 C32	1.707	-2.984	-0.013	C.2	1	2GM0	0.000	
43	 C33	1.888	-1.961	0.898	C.2	1	2GM0	0.000	
44	  H1	-3.290	2.348	-0.140	 H	1	2GM0	0.000	
45	  H2	-2.934	0.878	0.799	 H	1	2GM0	0.000	
46	  H3	-4.624	1.019	-1.737	 H	1	2GM0	0.000	
47	  H4	-5.042	2.779	0.962	 H	1	2GM0	0.000	
48	  H5	-7.041	2.960	2.343	 H	1	2GM0	0.000	
49	  H6	-8.787	1.229	2.408	 H	1	2GM0	0.000	
50	  H7	-9.260	-1.418	1.113	 H	1	2GM0	0.000	
51	  H8	-8.013	-2.916	-0.547	 H	1	2GM0	0.000	
52	  H9	-5.202	-2.730	-1.405	 H	1	2GM0	0.000	
53	 H10	-5.624	-1.339	-2.438	 H	1	2GM0	0.000	
54	 H11	-3.922	-1.296	0.090	 H	1	2GM0	0.000	
55	 H13	-3.777	-2.963	-2.520	 H	1	2GM0	0.000	
56	 H14	-2.024	-2.725	-2.715	 H	1	2GM0	0.000	
57	 H15	-2.698	-3.098	-1.110	 H	1	2GM0	0.000	
58	 H16	-1.602	-0.979	-0.262	 H	1	2GM0	0.000	
59	 H17	-0.974	-0.780	-1.916	 H	1	2GM0	0.000	
60	 H18	-2.159	1.386	-2.110	 H	1	2GM0	0.000	
61	 H19	0.496	0.914	-2.041	 H	1	2GM0	0.000	
62	 H20	0.720	3.757	0.103	 H	1	2GM0	0.000	
63	 H21	2.472	3.933	-0.155	 H	1	2GM0	0.000	
64	 H22	1.365	3.920	-1.548	 H	1	2GM0	0.000	
65	 H23	2.681	-0.908	-1.140	 H	1	2GM0	0.000	
66	 H24	5.183	2.312	-0.384	 H	1	2GM0	0.000	
67	 H25	5.297	0.254	-2.630	 H	1	2GM0	0.000	
68	 H26	5.692	2.004	-2.685	 H	1	2GM0	0.000	
69	 H27	7.721	0.208	-2.514	 H	1	2GM0	0.000	
70	 H28	7.778	1.679	-1.487	 H	1	2GM0	0.000	
71	 H29	6.926	-1.154	-0.737	 H	1	2GM0	0.000	
72	 H30	7.911	0.004	0.204	 H	1	2GM0	0.000	
73	 H31	4.073	1.290	2.561	 H	1	2GM0	0.000	
74	 H32	3.910	-1.067	3.379	 H	1	2GM0	0.000	
75	 H33	2.326	-0.389	2.932	 H	1	2GM0	0.000	
76	 H34	5.053	-2.639	1.847	 H	1	2GM0	0.000	
77	 H35	4.726	-4.468	0.230	 H	1	2GM0	0.000	
78	 H36	2.583	-4.689	-0.961	 H	1	2GM0	0.000	
79	 H37	0.766	-3.081	-0.536	 H	1	2GM0	0.000	
80	 H38	1.090	-1.258	1.087	 H	1	2GM0	0.000	
@<TRIPOS>BOND
1 21 22 1
2 30 31 1
3 31 32 1
4 29 30 1
5 21 23 1
6 23 27 1
7 27 29 1
8 29 33 1
9 20 21 1
10 21 24 1
11 18 20 1
12 32 33 1
13 27 28 1
14 26 27 1
15 14 16 1
16 16 17 1
17 14 15 1
18 33 34 1
19 13 14 1
20 17 18 1
21 18 19 2
22 1 17 1
23 24 26 1
24 24 25 2
25 26 36 1
26 34 36 1
27 34 35 2
28 12 13 1
29 2 13 1
30 11 12 1
31 1 2 1
32 36 37 1
33 2 3 1
34 10 11 2
35 4 11 1
36 37 38 1
37 3 4 2
38 3 5 1
39 9 10 1
40 4 8 1
41 38 39 2
42 38 43 1
43 39 40 1
44 42 43 2
45 5 6 2
46 8 9 1
47 40 41 2
48 7 8 2
49 41 42 1
50 6 7 1
51 1 44 1
52 1 45 1
53 2 46 1
54 5 47 1
55 6 48 1
56 7 49 1
57 9 50 1
58 10 51 1
59 12 52 1
60 12 53 1
61 13 54 1
62 15 55 1
63 15 56 1
64 15 57 1
65 16 58 1
66 16 59 1
67 17 60 1
68 20 61 1
69 22 62 1
70 22 63 1
71 22 64 1
72 28 65 1
73 29 66 1
74 30 67 1
75 30 68 1
76 31 69 1
77 31 70 1
78 32 71 1
79 32 72 1
80 36 73 1
81 37 74 1
82 37 75 1
83 39 76 1
84 40 77 1
85 41 78 1
86 42 79 1
87 43 80 1
@<TRIPOS>SUBSTRUCTURE
1	2GM0	1	GROUP	1 ****	2GM
