@<TRIPOS>MOLECULE
PIO
40 40 1 0 0
SMALL
NO_CHARGES


@<TRIPOS>ATOM
      1 C1        124.7430  105.9120  114.5300 C.3       1 PIO488      0.0000
      2 O1        123.5790  106.5690  115.0380 O.3       1 PIO488      0.0000
      3 P1        123.6490  107.9970  115.7920 P.3       1 PIO488      0.0000
      4 C2        125.4490  106.7400  113.4730 C.3       1 PIO488      0.0000
      5 O2        124.6640  106.7780  112.2780 O.3       1 PIO488      0.0000
      6 C3        126.7800  106.0660  113.1910 C.3       1 PIO488      0.0000
      7 O3        127.5570  106.8820  112.3070 O.3       1 PIO488      0.0000
      8 C4        126.5550  104.6930  112.5670 C.3       1 PIO488      0.0000
      9 O4        127.8150  104.0330  112.4550 O.3       1 PIO488      0.0000
     10 P4        128.3210  103.4280  111.0490 P.3       1 PIO488      0.0000
     11 C5        125.6080  103.8210  113.3980 C.3       1 PIO488      0.0000
     12 O5        125.2150  102.7090  112.5910 O.3       1 PIO488      0.0000
     13 P5        124.4640  101.4180  113.1960 P.3       1 PIO488      0.0000
     14 C6        124.3700  104.5760  113.8960 C.3       1 PIO488      0.0000
     15 O6        123.6580  103.7840  114.8530 O.3       1 PIO488      0.0000
     16 O11       124.7950  108.8120  115.2430 O.co2     1 PIO488      0.0000
     17 O12       122.2550  108.5750  115.7620 O.co2     1 PIO488      0.0000
     18 O13       123.9890  107.6520  117.3320 O.3       1 PIO488      0.0000
     19 C1A       120.7780  109.3450  118.1640 C.2       1 PIO488      0.0000
     20 O1A       121.3210  110.4220  117.9810 O.2       1 PIO488      0.0000
     21 C1B       122.0470  110.2030  122.3500 C.2       1 PIO488      0.0000
     22 O1B       122.3620  109.9180  123.4940 O.2       1 PIO488      0.0000
     23 C1C       123.9530  108.7100  118.2920 C.3       1 PIO488      0.0000
     24 C2A       119.2790  109.2100  118.0190 C.3       1 PIO488      0.0000
     25 C2B       120.6950  110.8070  122.0550 C.3       1 PIO488      0.0000
     26 C2C       122.7660  108.6080  119.2510 C.3       1 PIO488      0.0000
     27 O2C       121.5930  108.2010  118.5450 O.3       1 PIO488      0.0000
     28 C3A       118.7410  108.0780  118.8880 C.3       1 PIO488      0.0000
     29 C3B       120.4210  111.9480  123.0290 C.3       1 PIO488      0.0000
     30 C3C       122.5270  109.9570  119.9240 C.3       1 PIO488      0.0000
     31 O3C       122.9920  109.9540  121.2700 O.3       1 PIO488      0.0000
     32 O41       128.8510  104.6370  110.3170 O.co2     1 PIO488      0.0000
     33 O42       127.0850  102.8200  110.4280 O.co2     1 PIO488      0.0000
     34 O43       129.3870  102.4330  111.4410 O.co2     1 PIO488      0.0000
     35 C4A       117.2180  108.0190  118.8060 C.3       1 PIO488      0.0000
     36 C4B       121.0050  111.6480  124.4040 C.3       1 PIO488      0.0000
     37 O51       124.7950  100.3190  112.2150 O.co2     1 PIO488      0.0000
     38 O52       125.0740  101.2440  114.5650 O.co2     1 PIO488      0.0000
     39 O53       123.0030  101.8060  113.1990 O.co2     1 PIO488      0.0000
     40 C5A       116.6550  106.8810  119.6490 C.3       1 PIO488      0.0000
@<TRIPOS>BOND
     1    1    2 1
     2    1    4 1
     3    1   14 1
     4    2    3 1
     5    3   16 1
     6    3   17 1
     7    3   18 1
     8    4    5 1
     9    4    6 1
    10    6    7 1
    11    6    8 1
    12    8    9 1
    13    8   11 1
    14    9   10 1
    15   10   32 1
    16   10   33 1
    17   10   34 1
    18   11   12 1
    19   11   14 1
    20   12   13 1
    21   13   37 1
    22   13   38 1
    23   13   39 1
    24   14   15 1
    25   18   23 1
    26   19   20 2
    27   19   24 1
    28   19   27 1
    29   21   22 2
    30   21   25 1
    31   21   31 1
    32   23   26 1
    33   24   28 1
    34   25   29 1
    35   26   27 1
    36   26   30 1
    37   28   35 1
    38   29   36 1
    39   30   31 1
    40   35   40 1
@<TRIPOS>SUBSTRUCTURE
     1 PIO488      1 RESIDUE           4 R     PIO     0 ROOT
