# created with PyMOL 2.3.5
@<TRIPOS>MOLECULE
TRS
20 19 1 0 0
SMALL
USER_CHARGES


@<TRIPOS>ATOM
      1 C           0.0130   -0.2960    0.0140 C.3       1 TRS1        0.0000
      2 C1         -0.0420    0.9860    0.8480 C.3       1 TRS1        0.0000
      3 C2          1.2630   -0.2760   -0.8690 C.3       1 TRS1        0.0000
      4 C3         -1.2330   -0.3840   -0.8690 C.3       1 TRS1        0.0000
      5 N           0.0640   -1.4600    0.9080 N.4       1 TRS1        0.0000
      6 O1         -0.0910    2.1180   -0.0220 O.3       1 TRS1        0.0000
      7 O2          2.4290   -0.3110   -0.0440 O.3       1 TRS1        0.0000
      8 O3         -2.4000   -0.4030   -0.0440 O.3       1 TRS1        0.0000
      9 H11        -0.9320    0.9720    1.4770 H         1 TRS1        0.0000
     10 H12         0.8460    1.0490    1.4770 H         1 TRS1        0.0000
     11 H21         1.2570   -1.1450   -1.5270 H         1 TRS1        0.0000
     12 H22         1.2690    0.6330   -1.4690 H         1 TRS1        0.0000
     13 H31        -1.2710    0.4800   -1.5320 H         1 TRS1        0.0000
     14 H32        -1.1940   -1.2970   -1.4630 H         1 TRS1        0.0000
     15 HN1        -0.7600   -1.4730    1.4900 H         1 TRS1        0.0000
     16 HN2         0.8860   -1.4020    1.4900 H         1 TRS1        0.0000
     17 HN3         0.1000   -2.3050    0.3580 H         1 TRS1        0.0000
     18 HO1        -0.1250    2.9030    0.5420 H         1 TRS1        0.0000
     19 HO2         3.1920   -0.2970   -0.6380 H         1 TRS1        0.0000
     20 HO3        -3.1610   -0.4590   -0.6380 H         1 TRS1        0.0000
@<TRIPOS>BOND
     1    1    2 1
     2    1    3 1
     3    1    4 1
     4    1    5 1
     5    2    6 1
     6    2    9 1
     7    2   10 1
     8    3    7 1
     9    3   11 1
    10    3   12 1
    11    4    8 1
    12    4   13 1
    13    4   14 1
    14    5   15 1
    15    5   16 1
    16    5   17 1
    17    6   18 1
    18    7   19 1
    19    8   20 1
@<TRIPOS>SUBSTRUCTURE
     1 TRS1        1 RESIDUE           4 A     TRS     0 ROOT
