# created with PyMOL 2.3.5
@<TRIPOS>MOLECULE
TLA
16 15 1                 
SMALL
USER_CHARGES
@<TRIPOS>ATOM
1	  O1	0.678	0.390	-2.644	O.co2	1	TLA0	0.000	
2	 O11	-1.234	-0.674	-2.342	O.3	1	TLA0	0.000	
3	  C1	-0.227	0.096	-1.901	C.2	1	TLA0	0.000	
4	  C2	-0.228	0.596	-0.479	C.3	1	TLA0	0.000	
5	  O2	0.938	1.389	-0.253	O.3	1	TLA0	0.000	
6	  C3	-0.227	-0.596	0.479	C.3	1	TLA0	0.000	
7	  O3	0.939	-1.389	0.253	O.3	1	TLA0	0.000	
8	  C4	-0.227	-0.097	1.901	C.2	1	TLA0	0.000	
9	  O4	0.678	-0.390	2.644	O.co2	1	TLA0	0.000	
10	 O41	-1.234	0.673	2.342	O.3	1	TLA0	0.000	
11	 H11	-1.234	-0.994	-3.254	 H	1	TLA0	0.000	
12	  H2	-1.118	1.200	-0.306	 H	1	TLA0	0.000	
13	  HA	1.701	0.818	-0.416	 H	1	TLA0	0.000	
14	  H3	-1.117	-1.201	0.306	 H	1	TLA0	0.000	
15	  HB	1.702	-0.817	0.416	 H	1	TLA0	0.000	
16	 H41	-1.234	0.993	3.254	 H	1	TLA0	0.000	
@<TRIPOS>BOND
1 1 3 2
2 2 3 1
3 2 11 1
4 3 4 1
5 4 5 1
6 4 6 1
7 4 12 1
8 5 13 1
9 6 7 1
10 6 8 1
11 6 14 1
12 7 15 1
13 8 9 2
14 8 10 1
15 10 16 1
@<TRIPOS>SUBSTRUCTURE
1	TLA0	1	GROUP	1 ****	TLA
