# created with PyMOL 2.3.5
@<TRIPOS>MOLECULE
DNZ
51 54 1 0 0
SMALL
USER_CHARGES


@<TRIPOS>ATOM
      1 C10         3.0880   -2.8310    0.0560 C.3       1 DNZ1        0.0000
      2 C13         2.8610   -0.3670    0.2220 C.2       1 DNZ1        0.0000
      3 C15         4.1120    1.1890   -1.0990 C.2       1 DNZ1        0.0000
      4 C16         4.1990    2.0420   -0.0130 C.2       1 DNZ1        0.0000
      5 C18         3.6210    1.6860    1.1930 C.2       1 DNZ1        0.0000
      6 C19         2.9480    0.4840    1.3080 C.2       1 DNZ1        0.0000
      7 C21        -4.6090   -0.0320    0.4520 C.2       1 DNZ1        0.0000
      8 C22        -4.4860    1.2780   -0.0050 C.2       1 DNZ1        0.0000
      9 C24        -5.6140    1.9830   -0.3890 C.2       1 DNZ1        0.0000
     10 C25        -6.8600    1.3870   -0.3180 C.2       1 DNZ1        0.0000
     11 C26        -6.9820    0.0870    0.1360 C.2       1 DNZ1        0.0000
     12 C27        -5.8600   -0.6230    0.5200 C.2       1 DNZ1        0.0000
     13 C1         -1.1920    0.5570    0.9580 C.3       1 DNZ1        0.0000
     14 C2         -2.4480    0.3850    0.1100 C.3       1 DNZ1        0.0000
     15 C3         -2.0950   -0.1260   -1.2830 C.3       1 DNZ1        0.0000
     16 C4         -1.3920   -1.4820   -1.1640 C.3       1 DNZ1        0.0000
     17 N5         -0.2500   -1.3420   -0.2500 N.pl3     1 DNZ1        0.0000
     18 C6         -0.4800   -0.7940    1.0930 C.3       1 DNZ1        0.0000
     19 C7          0.9880   -1.7110   -0.6370 C.2       1 DNZ1        0.0000
     20 O8          1.1840   -2.0700   -1.7790 O.2       1 DNZ1        0.0000
     21 C9          2.1270   -1.6770    0.3480 C.3       1 DNZ1        0.0000
     22 N11         4.2570   -2.7300    0.9410 N.3       1 DNZ1        0.0000
     23 C12         2.3760   -4.1620    0.3010 C.3       1 DNZ1        0.0000
     24 C14         3.4440   -0.0140   -0.9810 C.2       1 DNZ1        0.0000
     25 CL          5.0340    3.5560   -0.1620 Cl        1 DNZ1        0.0000
     26 O20        -3.3650   -0.5070    0.7590 O.3       1 DNZ1        0.0000
     27 O23        -3.1650    1.6270    0.0200 O.3       1 DNZ1        0.0000
     28 H1          3.4140   -2.7790   -0.9830 H         1 DNZ1        0.0000
     29 H2          4.5630    1.4670   -2.0400 H         1 DNZ1        0.0000
     30 H3          3.6880    2.3500    2.0410 H         1 DNZ1        0.0000
     31 H4          2.4890    0.2100    2.2470 H         1 DNZ1        0.0000
     32 H5         -5.5220    2.9990   -0.7430 H         1 DNZ1        0.0000
     33 H6         -7.7390    1.9380   -0.6180 H         1 DNZ1        0.0000
     34 H7         -7.9570   -0.3750    0.1910 H         1 DNZ1        0.0000
     35 H8         -5.9590   -1.6390    0.8740 H         1 DNZ1        0.0000
     36 H9         -0.5250    1.2730    0.4790 H         1 DNZ1        0.0000
     37 H10        -1.4680    0.9230    1.9470 H         1 DNZ1        0.0000
     38 H11        -3.0070   -0.2390   -1.8700 H         1 DNZ1        0.0000
     39 H12        -1.4320    0.5860   -1.7750 H         1 DNZ1        0.0000
     40 H13        -2.0880   -2.2220   -0.7680 H         1 DNZ1        0.0000
     41 H14        -1.0410   -1.7990   -2.1460 H         1 DNZ1        0.0000
     42 H15         0.4750   -0.6550    1.6000 H         1 DNZ1        0.0000
     43 H16        -1.1040   -1.4800    1.6660 H         1 DNZ1        0.0000
     44 H17         1.7350   -1.7780    1.3600 H         1 DNZ1        0.0000
     45 H18         4.8760   -3.5170    0.8130 H         1 DNZ1        0.0000
     46 H19         4.7450   -1.8590    0.7980 H         1 DNZ1        0.0000
     47 H21         1.5630   -4.2770   -0.4150 H         1 DNZ1        0.0000
     48 H22         3.0850   -4.9820    0.1800 H         1 DNZ1        0.0000
     49 H23         1.9730   -4.1780    1.3140 H         1 DNZ1        0.0000
     50 H24         3.3760   -0.6800   -1.8290 H         1 DNZ1        0.0000
     51 HN1         3.9263   -2.7473    1.8952 H         1 DNZ1        0.0000
@<TRIPOS>BOND
     1   11   12 2
     2    7   12 1
     3   17   18 1
     4   13   18 1
     5    7   26 1
     6   14   26 1
     7   10   11 1
     8    1   23 1
     9    7    8 2
    10   16   17 1
    11   17   19 1
    12    1   22 1
    13   13   14 1
    14    1   21 1
    15   19   21 1
    16    2   21 1
    17   15   16 1
    18   14   15 1
    19   14   27 1
    20    2   24 2
    21    3   24 1
    22   19   20 2
    23    9   10 2
    24    8   27 1
    25    8    9 1
    26    2    6 1
    27    3    4 2
    28    5    6 2
    29    4    5 1
    30    4   25 1
    31    1   28 1
    32    3   29 1
    33    5   30 1
    34    6   31 1
    35    9   32 1
    36   10   33 1
    37   11   34 1
    38   12   35 1
    39   13   36 1
    40   13   37 1
    41   15   38 1
    42   15   39 1
    43   16   40 1
    44   16   41 1
    45   18   42 1
    46   18   43 1
    47   21   44 1
    48   22   45 1
    49   22   46 1
    50   23   47 1
    51   23   48 1
    52   23   49 1
    53   24   50 1
    54   51   22 1
@<TRIPOS>SUBSTRUCTURE
     1 DNZ1        1 RESIDUE           4 A     DNZ     0 ROOT
