# created with PyMOL 2.3.5
@<TRIPOS>MOLECULE
JLW
62 64 1                 
SMALL
USER_CHARGES
@<TRIPOS>ATOM
1	  N1	5.698	2.216	0.114	N.pl3	1	JLW0	0.000	
2	  N3	0.200	-2.590	0.258	N.2	1	JLW0	0.000	
3	  C4	4.318	0.227	-0.235	C.2	1	JLW0	0.000	
4	  C5	3.888	-1.901	0.799	C.2	1	JLW0	0.000	
5	  C6	4.783	-0.956	0.345	C.2	1	JLW0	0.000	
6	  C7	2.941	0.447	-0.352	C.2	1	JLW0	0.000	
7	  C8	2.047	-0.516	0.111	C.2	1	JLW0	0.000	
8	 C10	6.265	-1.200	0.475	C.3	1	JLW0	0.000	
9	 C13	-3.719	0.171	0.068	C.3	1	JLW0	0.000	
10	 C15	-4.104	1.551	0.534	C.2	1	JLW0	0.000	
11	 C17	-3.699	0.975	-2.298	C.3	1	JLW0	0.000	
12	 C20	-5.117	3.250	1.533	C.2	1	JLW0	0.000	
13	 C21	-4.100	3.729	0.794	C.2	1	JLW0	0.000	
14	 C22	-3.713	5.180	0.664	C.3	1	JLW0	0.000	
15	  C1	5.274	1.242	-0.716	C.2	1	JLW0	0.000	
16	 C11	-0.206	-1.362	0.136	C.2	1	JLW0	0.000	
17	 C12	-1.664	-1.183	0.157	C.2	1	JLW0	0.000	
18	 C14	-4.276	-0.067	-1.337	C.3	1	JLW0	0.000	
19	 C16	-3.885	-1.468	-1.811	C.3	1	JLW0	0.000	
20	 C18	-5.801	0.055	-1.309	C.3	1	JLW0	0.000	
21	 C19	-5.119	1.846	1.366	C.2	1	JLW0	0.000	
22	  C2	6.648	3.224	-0.363	C.3	1	JLW0	0.000	
23	  C3	5.205	2.269	1.493	C.3	1	JLW0	0.000	
24	  C9	2.525	-1.685	0.684	C.2	1	JLW0	0.000	
25	  N2	0.668	-0.304	-0.002	N.pl3	1	JLW0	0.000	
26	  N4	-2.351	-2.276	0.294	N.2	1	JLW0	0.000	
27	  N5	-2.259	0.055	0.040	N.pl3	1	JLW0	0.000	
28	  O1	5.680	1.201	-1.861	O.2	1	JLW0	0.000	
29	  O2	2.478	1.593	-0.913	O.3	1	JLW0	0.000	
30	  O3	-1.317	-4.276	-0.782	O.2	1	JLW0	0.000	
31	  O4	-1.248	-4.006	1.714	O.2	1	JLW0	0.000	
32	  O5	-3.489	2.696	0.193	O.3	1	JLW0	0.000	
33	  S1	-1.203	-3.485	0.393	S.O2	1	JLW0	0.000	
34	  H2	4.251	-2.815	1.246	 H	1	JLW0	0.000	
35	  H3	6.615	-0.809	1.430	 H	1	JLW0	0.000	
36	  H4	6.462	-2.271	0.426	 H	1	JLW0	0.000	
37	  H5	6.788	-0.697	-0.338	 H	1	JLW0	0.000	
38	  H6	-4.129	-0.571	0.752	 H	1	JLW0	0.000	
39	  H7	-2.613	0.888	-2.318	 H	1	JLW0	0.000	
40	  H8	-4.096	0.806	-3.299	 H	1	JLW0	0.000	
41	  H9	-3.978	1.974	-1.961	 H	1	JLW0	0.000	
42	 H10	-5.802	3.827	2.137	 H	1	JLW0	0.000	
43	 H11	-2.989	5.433	1.438	 H	1	JLW0	0.000	
44	 H12	-3.270	5.351	-0.317	 H	1	JLW0	0.000	
45	 H13	-4.599	5.804	0.776	 H	1	JLW0	0.000	
46	 H14	-4.296	-2.211	-1.126	 H	1	JLW0	0.000	
47	 H15	-4.282	-1.638	-2.811	 H	1	JLW0	0.000	
48	 H16	-2.799	-1.555	-1.831	 H	1	JLW0	0.000	
49	 H17	-6.080	1.053	-0.971	 H	1	JLW0	0.000	
50	 H18	-6.198	-0.115	-2.309	 H	1	JLW0	0.000	
51	 H19	-6.212	-0.688	-0.624	 H	1	JLW0	0.000	
52	 H20	-5.803	1.145	1.820	 H	1	JLW0	0.000	
53	 H21	6.101	4.069	-0.780	 H	1	JLW0	0.000	
54	 H22	7.265	3.565	0.468	 H	1	JLW0	0.000	
55	 H23	7.284	2.788	-1.133	 H	1	JLW0	0.000	
56	 H24	4.509	1.447	1.662	 H	1	JLW0	0.000	
57	 H25	6.044	2.183	2.183	 H	1	JLW0	0.000	
58	 H26	4.694	3.217	1.659	 H	1	JLW0	0.000	
59	 H27	1.831	-2.431	1.042	 H	1	JLW0	0.000	
60	 H28	0.327	0.587	-0.177	 H	1	JLW0	0.000	
61	 H30	-1.711	0.849	-0.061	 H	1	JLW0	0.000	
62	 H32	2.350	1.538	-1.870	 H	1	JLW0	0.000	
@<TRIPOS>BOND
1 1 15 1
2 1 22 1
3 1 23 1
4 2 16 2
5 2 33 1
6 3 5 2
7 3 6 1
8 3 15 1
9 4 5 1
10 4 24 2
11 5 8 1
12 6 7 2
13 6 29 1
14 7 24 1
15 7 25 1
16 9 10 1
17 9 18 1
18 9 27 1
19 10 21 2
20 10 32 1
21 11 18 1
22 12 13 2
23 12 21 1
24 13 14 1
25 13 32 1
26 15 28 2
27 16 17 1
28 16 25 1
29 17 26 2
30 17 27 1
31 18 19 1
32 18 20 1
33 26 33 1
34 30 33 2
35 31 33 2
36 4 34 1
37 8 35 1
38 8 36 1
39 8 37 1
40 9 38 1
41 11 39 1
42 11 40 1
43 11 41 1
44 12 42 1
45 14 43 1
46 14 44 1
47 14 45 1
48 19 46 1
49 19 47 1
50 19 48 1
51 20 49 1
52 20 50 1
53 20 51 1
54 21 52 1
55 22 53 1
56 22 54 1
57 22 55 1
58 23 56 1
59 23 57 1
60 23 58 1
61 24 59 1
62 25 60 1
63 27 61 1
64 29 62 1
@<TRIPOS>SUBSTRUCTURE
1	JLW0	1	GROUP	1 ****	JLW
