# created with PyMOL 2.3.5
@<TRIPOS>MOLECULE
FLC
18 17 1                 
SMALL
USER_CHARGES
@<TRIPOS>ATOM
1	 CAC	-2.487	0.388	-0.009	C.2	1	FLC0	0.000	
2	  CA	-1.258	1.106	-0.503	C.3	1	FLC0	0.000	
3	  CB	-0.008	0.424	0.059	C.3	1	FLC0	0.000	
4	 CBC	0.029	-1.011	-0.400	C.2	1	FLC0	0.000	
5	  CG	1.240	1.153	-0.443	C.3	1	FLC0	0.000	
6	 CGC	2.471	0.410	0.009	C.2	1	FLC0	0.000	
7	 OA1	-2.375	-0.580	0.725	O.co2	1	FLC0	0.000	
8	 OA2	-3.594	0.775	-0.342	O.co2	1	FLC0	0.000	
9	 OB1	0.027	-1.955	0.458	O.co2	1	FLC0	0.000	
10	 OB2	0.064	-1.282	-1.645	O.co2	1	FLC0	0.000	
11	 OG1	2.360	-0.609	0.671	O.co2	1	FLC0	0.000	
12	 OG2	3.578	0.827	-0.288	O.co2	1	FLC0	0.000	
13	 OHB	-0.044	0.467	1.487	O.3	1	FLC0	0.000	
14	 HA1	-1.285	2.144	-0.171	 H	1	FLC0	0.000	
15	 HA2	-1.231	1.073	-1.592	 H	1	FLC0	0.000	
16	 HG1	1.221	1.197	-1.532	 H	1	FLC0	0.000	
17	 HG2	1.257	2.165	-0.038	 H	1	FLC0	0.000	
18	 HOB	-0.067	1.400	1.738	 H	1	FLC0	0.000	
@<TRIPOS>BOND
1 1 2 1
2 1 7 2
3 1 8 1
4 2 3 1
5 2 14 1
6 2 15 1
7 3 4 1
8 3 5 1
9 3 13 1
10 4 9 2
11 4 10 1
12 5 6 1
13 5 16 1
14 5 17 1
15 6 11 2
16 6 12 1
17 13 18 1
@<TRIPOS>SUBSTRUCTURE
1	FLC0	1	GROUP	1 ****	FLC
