# created with PyMOL 2.3.5
@<TRIPOS>MOLECULE
ON7
73 76 1                 
SMALL
USER_CHARGES
@<TRIPOS>ATOM
1	  O5	-5.742	-0.132	1.314	O.co2	1	ON70	0.000	
2	 C28	-4.632	0.296	1.564	C.2	1	ON70	0.000	
3	  O4	-4.337	0.715	2.811	O.3	1	ON70	0.000	
4	 C29	-5.356	0.525	3.828	C.3	1	ON70	0.000	
5	 C25	-3.610	0.353	0.508	C.2	1	ON70	0.000	
6	 C24	-3.728	-0.154	-0.864	C.2	1	ON70	0.000	
7	 C30	-4.924	-0.839	-1.474	C.3	1	ON70	0.000	
8	 C31	-5.887	0.199	-1.991	C.2	1	ON70	0.000	
9	  O7	-5.629	1.373	-1.875	O.co2	1	ON70	0.000	
10	  O6	-7.032	-0.183	-2.579	O.3	1	ON70	0.000	
11	 C23	-2.557	0.113	-1.469	C.2	1	ON70	0.000	
12	 C26	-2.348	0.898	0.603	C.2	1	ON70	0.000	
13	  N1	-1.731	0.742	-0.583	N.pl3	1	ON70	0.000	
14	 C13	-0.370	1.191	-0.884	C.3	1	ON70	0.000	
15	  C8	0.635	0.164	-0.357	C.3	1	ON70	0.000	
16	  C6	0.443	-1.162	-1.095	C.3	1	ON70	0.000	
17	  O2	-0.886	-1.641	-0.878	O.3	1	ON70	0.000	
18	  C3	1.432	-2.174	-0.576	C.2	1	ON70	0.000	
19	  C2	1.132	-2.916	0.551	C.2	1	ON70	0.000	
20	  C5	2.635	-2.362	-1.230	C.2	1	ON70	0.000	
21	  C7	3.547	-3.293	-0.753	C.2	1	ON70	0.000	
22	  O3	4.729	-3.477	-1.397	O.3	1	ON70	0.000	
23	 C11	4.968	-2.678	-2.557	C.3	1	ON70	0.000	
24	  C9	3.251	-4.035	0.380	C.2	1	ON70	0.000	
25	 C10	4.240	-5.046	0.899	C.3	1	ON70	0.000	
26	  C1	2.039	-3.852	1.028	C.2	1	ON70	0.000	
27	  O1	1.746	-4.577	2.139	O.3	1	ON70	0.000	
28	  C4	0.479	-4.337	2.756	C.3	1	ON70	0.000	
29	 C12	2.057	0.676	-0.589	C.3	1	ON70	0.000	
30	 C14	2.315	1.890	0.307	C.3	1	ON70	0.000	
31	 C16	3.805	2.290	0.273	C.3	1	ON70	0.000	
32	 C18	3.811	3.801	0.365	C.2	1	ON70	0.000	
33	 C19	4.834	4.676	0.691	C.2	1	ON70	0.000	
34	 C20	4.603	6.038	0.711	C.2	1	ON70	0.000	
35	 C21	3.348	6.530	0.405	C.2	1	ON70	0.000	
36	 C22	2.327	5.659	0.080	C.2	1	ON70	0.000	
37	 C17	2.556	4.293	0.059	C.2	1	ON70	0.000	
38	 C15	1.616	3.145	-0.257	C.3	1	ON70	0.000	
39	  H1	-5.026	0.981	4.762	 H	1	ON70	0.000	
40	  H2	-6.285	0.992	3.504	 H	1	ON70	0.000	
41	  H3	-5.520	-0.541	3.984	 H	1	ON70	0.000	
42	  H4	-4.598	-1.474	-2.298	 H	1	ON70	0.000	
43	  H5	-5.418	-1.449	-0.718	 H	1	ON70	0.000	
44	  H6	-7.618	0.519	-2.894	 H	1	ON70	0.000	
45	  H7	-2.310	-0.131	-2.491	 H	1	ON70	0.000	
46	  H8	-1.925	1.368	1.479	 H	1	ON70	0.000	
47	  H9	-0.251	1.294	-1.963	 H	1	ON70	0.000	
48	 H10	-0.190	2.153	-0.405	 H	1	ON70	0.000	
49	 H11	0.472	0.012	0.711	 H	1	ON70	0.000	
50	 H12	0.605	-1.011	-2.162	 H	1	ON70	0.000	
51	 H13	-1.100	-1.798	0.051	 H	1	ON70	0.000	
52	 H14	0.192	-2.767	1.061	 H	1	ON70	0.000	
53	 H15	2.865	-1.784	-2.112	 H	1	ON70	0.000	
54	 H16	5.945	-2.924	-2.973	 H	1	ON70	0.000	
55	 H17	4.196	-2.877	-3.301	 H	1	ON70	0.000	
56	 H18	4.945	-1.623	-2.283	 H	1	ON70	0.000	
57	 H19	4.910	-4.566	1.612	 H	1	ON70	0.000	
58	 H20	3.704	-5.857	1.394	 H	1	ON70	0.000	
59	 H21	4.819	-5.448	0.068	 H	1	ON70	0.000	
60	 H22	0.417	-3.293	3.063	 H	1	ON70	0.000	
61	 H23	-0.318	-4.555	2.045	 H	1	ON70	0.000	
62	 H24	0.373	-4.979	3.630	 H	1	ON70	0.000	
63	 H25	2.771	-0.112	-0.347	 H	1	ON70	0.000	
64	 H26	2.174	0.964	-1.633	 H	1	ON70	0.000	
65	 H27	1.990	1.691	1.328	 H	1	ON70	0.000	
66	 H28	4.333	1.857	1.122	 H	1	ON70	0.000	
67	 H29	4.263	1.965	-0.662	 H	1	ON70	0.000	
68	 H30	5.814	4.293	0.930	 H	1	ON70	0.000	
69	 H31	5.403	6.718	0.966	 H	1	ON70	0.000	
70	 H32	3.166	7.594	0.421	 H	1	ON70	0.000	
71	 H33	1.346	6.044	-0.159	 H	1	ON70	0.000	
72	 H34	1.482	3.052	-1.335	 H	1	ON70	0.000	
73	 H35	0.654	3.298	0.233	 H	1	ON70	0.000	
@<TRIPOS>BOND
1 27 28 1
2 34 35 2
3 35 36 1
4 26 27 1
5 24 25 1
6 33 34 1
7 36 37 2
8 24 26 2
9 19 26 1
10 21 24 1
11 32 33 2
12 32 37 1
13 37 38 1
14 18 19 2
15 31 32 1
16 21 22 1
17 20 21 2
18 22 23 1
19 30 38 1
20 18 20 1
21 16 18 1
22 30 31 1
23 29 30 1
24 15 29 1
25 15 16 1
26 16 17 1
27 3 4 1
28 2 3 1
29 14 15 1
30 2 5 1
31 1 2 2
32 5 12 2
33 12 13 1
34 5 6 1
35 13 14 1
36 11 13 1
37 6 11 2
38 6 7 1
39 7 8 1
40 8 9 2
41 8 10 1
42 4 39 1
43 4 40 1
44 4 41 1
45 7 42 1
46 7 43 1
47 10 44 1
48 11 45 1
49 12 46 1
50 14 47 1
51 14 48 1
52 15 49 1
53 16 50 1
54 17 51 1
55 19 52 1
56 20 53 1
57 23 54 1
58 23 55 1
59 23 56 1
60 25 57 1
61 25 58 1
62 25 59 1
63 28 60 1
64 28 61 1
65 28 62 1
66 29 63 1
67 29 64 1
68 30 65 1
69 31 66 1
70 31 67 1
71 33 68 1
72 34 69 1
73 35 70 1
74 36 71 1
75 38 72 1
76 38 73 1
@<TRIPOS>SUBSTRUCTURE
1	ON70	1	GROUP	1 ****	ON7
