@<TRIPOS>MOLECULE
H98
25 26 1 0 0
SMALL
NO_CHARGES


@<TRIPOS>ATOM
      1 C1        140.1390  162.4770  133.3300 C.3       1 H98465      0.0000
      2 C2        140.4110  162.3390  131.8270 C.3       1 H98465      0.0000
      3 C3        139.7380  163.5530  131.1130 C.3       1 H98465      0.0000
      4 C4        140.7140  164.5890  130.6090 C.ar      1 H98465      0.0000
      5 C5        140.8060  165.8630  131.1760 C.ar      1 H98465      0.0000
      6 C6        141.7120  166.8080  130.6990 C.ar      1 H98465      0.0000
      7 C7        142.5440  166.4770  129.6340 C.ar      1 H98465      0.0000
      8 C8        142.4740  165.2150  129.0480 C.ar      1 H98465      0.0000
      9 C9        141.5620  164.2870  129.5400 C.ar      1 H98465      0.0000
     10 O1        143.4430  167.3970  129.1500 O.3       1 H98465      0.0000
     11 C10       144.7950  167.0020  129.2270 C.3       1 H98465      0.0000
     12 N1        139.9000  160.9860  131.4090 N.4       1 H98465      0.0000
     13 C11       140.8390  159.8640  131.6900 C.3       1 H98465      0.0000
     14 C12       140.3030  158.4530  131.2420 C.3       1 H98465      0.0000
     15 C13       141.1600  157.2970  131.7650 C.ar      1 H98465      0.0000
     16 C14       142.4510  157.5060  132.2530 C.ar      1 H98465      0.0000
     17 C15       143.2170  156.4350  132.7250 C.ar      1 H98465      0.0000
     18 C16       142.6800  155.1390  132.7060 C.ar      1 H98465      0.0000
     19 C17       141.3930  154.9230  132.2200 C.ar      1 H98465      0.0000
     20 C18       140.6460  156.0000  131.7550 C.ar      1 H98465      0.0000
     21 O2        143.4760  154.1420  133.1790 O.3       1 H98465      0.0000
     22 N2        144.5350  156.6430  133.2250 N.am      1 H98465      0.0000
     23 C19       145.6270  156.9060  132.3940 C.2       1 H98465      0.0000
     24 O3        146.7520  157.0830  132.8290 O.2       1 H98465      0.0000
     25 O4        139.0500  158.3020  131.8500 O.3       1 H98465      0.0000
@<TRIPOS>BOND
     1    1    2 1
     2    2    3 1
     3    2   12 1
     4    3    4 1
     5    4    5 ar
     6    4    9 ar
     7    5    6 ar
     8    6    7 ar
     9    7    8 ar
    10    7   10 1
    11    8    9 ar
    12   10   11 1
    13   12   13 1
    14   13   14 1
    15   14   15 1
    16   14   25 1
    17   15   16 ar
    18   15   20 ar
    19   16   17 ar
    20   17   18 ar
    21   17   22 1
    22   18   19 ar
    23   18   21 1
    24   19   20 ar
    25   22   23 am
    26   23   24 2
@<TRIPOS>SUBSTRUCTURE
     1 H98465      1 RESIDUE           4 A     H98     0 ROOT
