@<TRIPOS>MOLECULE
H98
25 26 1 0 0
SMALL
NO_CHARGES


@<TRIPOS>ATOM
      1 C1         82.3390  100.9440  130.3310 C.3       1 H98446      0.0000
      2 C2         83.8140  100.6280  130.5400 C.3       1 H98446      0.0000
      3 C3         84.5610  101.9180  130.8800 C.3       1 H98446      0.0000
      4 C4         84.6520  102.0430  132.3520 C.ar      1 H98446      0.0000
      5 C5         84.6430  100.9130  133.1620 C.ar      1 H98446      0.0000
      6 C6         84.7260  101.0260  134.5390 C.ar      1 H98446      0.0000
      7 C7         84.8200  102.3070  135.0970 C.ar      1 H98446      0.0000
      8 C8         84.8310  103.4410  134.2950 C.ar      1 H98446      0.0000
      9 C9         84.7470  103.3030  132.9240 C.ar      1 H98446      0.0000
     10 O1         84.9010  102.3590  136.4600 O.3       1 H98446      0.0000
     11 C10        84.0280  101.4790  137.1300 C.3       1 H98446      0.0000
     12 N1         84.3240  100.0590  129.2840 N.4       1 H98446      0.0000
     13 C11        83.5940   98.8490  128.9240 C.3       1 H98446      0.0000
     14 C12        84.3340   98.1470  127.7740 C.3       1 H98446      0.0000
     15 C13        83.3810   97.1520  127.1900 C.ar      1 H98446      0.0000
     16 C14        82.3520   96.6880  127.9660 C.ar      1 H98446      0.0000
     17 C15        81.4620   95.7650  127.4390 C.ar      1 H98446      0.0000
     18 C16        81.6260   95.3160  126.1270 C.ar      1 H98446      0.0000
     19 C17        82.6710   95.7890  125.3490 C.ar      1 H98446      0.0000
     20 C18        83.5480   96.7080  125.8880 C.ar      1 H98446      0.0000
     21 O2         80.7580   94.4120  125.6080 O.3       1 H98446      0.0000
     22 N2         80.4100   95.2860  128.2200 N.am      1 H98446      0.0000
     23 C19        80.3200   95.6120  129.5690 C.2       1 H98446      0.0000
     24 O3         79.4090   95.2050  130.2800 O.2       1 H98446      0.0000
     25 O4         84.7850   99.0360  126.8110 O.3       1 H98446      0.0000
@<TRIPOS>BOND
     1    1    2 1
     2    2    3 1
     3    2   12 1
     4    3    4 1
     5    4    5 ar
     6    4    9 ar
     7    5    6 ar
     8    6    7 ar
     9    7    8 ar
    10    7   10 1
    11    8    9 ar
    12   10   11 1
    13   12   13 1
    14   13   14 1
    15   14   15 1
    16   14   25 1
    17   15   16 ar
    18   15   20 ar
    19   16   17 ar
    20   17   18 ar
    21   17   22 1
    22   18   19 ar
    23   18   21 1
    24   19   20 ar
    25   22   23 am
    26   23   24 2
@<TRIPOS>SUBSTRUCTURE
     1 H98446      1 RESIDUE           4 R     H98     0 ROOT
