# created with PyMOL 2.3.5
@<TRIPOS>MOLECULE
H8G
53 56 1 0 0
SMALL
USER_CHARGES


@<TRIPOS>ATOM
      1 H01        -1.2150    0.7840    0.1740 H         1 H8G1        0.0000
      2 CAA        -2.9890   -0.3240   -2.6490 C.3       1 H8G1        0.0000
      3 CAB        -4.5710   -2.7920   -0.8860 C.3       1 H8G1        0.0000
      4 CAC         0.3430    3.9070    0.1130 C.3       1 H8G1        0.0000
      5 CAE        -0.1760   -0.0480    1.5020 C.2       1 H8G1        0.0000
      6 CAF         3.4510   -2.5560    1.3630 C.2       1 H8G1        0.0000
      7 CAG         2.3290   -1.7740    1.6270 C.2       1 H8G1        0.0000
      8 CAH         4.3460   -2.3160    0.3270 C.2       1 H8G1        0.0000
      9 CAI         3.9330    0.4700   -1.9850 C.2       1 H8G1        0.0000
     10 CAJ        -3.9360    0.3710   -1.6690 C.3       1 H8G1        0.0000
     11 CAK        -5.1100   -1.4590   -0.3610 C.3       1 H8G1        0.0000
     12 CAL         1.7230    1.5960   -1.1370 C.3       1 H8G1        0.0000
     13 CAM        -0.7870    2.3380    1.5670 C.3       1 H8G1        0.0000
     14 CAP        -3.2170   -0.2440    0.5760 C.2       1 H8G1        0.0000
     15 CAQ         0.9530    0.2960    0.9080 C.2       1 H8G1        0.0000
     16 CAR         2.8730    0.6250   -1.1990 C.2       1 H8G1        0.0000
     17 CAS         2.0530   -0.6850    0.8320 C.2       1 H8G1        0.0000
     18 CAT         4.0960   -1.2220   -0.5010 C.2       1 H8G1        0.0000
     19 CAU         2.9610   -0.4560   -0.2240 C.2       1 H8G1        0.0000
     20 CAV        -1.3350    0.9060    1.6110 C.3       1 H8G1        0.0000
     21 CAW         1.1800    1.6530    0.2980 C.3       1 H8G1        0.0000
     22 NAN        -2.2540    0.6950    0.4900 N.pl3     1 H8G1        0.0000
     23 NAO         4.6760   -0.6280   -1.5800 N.pl3     1 H8G1        0.0000
     24 NAX        -0.0070    2.4980    0.3370 N.3       1 H8G1        0.0000
     25 NAY        -4.0630   -0.4380   -0.4550 N.pl3     1 H8G1        0.0000
     26 OAD        -3.3220   -0.9160    1.5840 O.2       1 H8G1        0.0000
     27 H1         -2.0090   -0.4410   -2.1860 H         1 H8G1        0.0000
     28 H2         -3.3880   -1.3050   -2.9060 H         1 H8G1        0.0000
     29 H3         -2.8940    0.2780   -3.5530 H         1 H8G1        0.0000
     30 H4         -5.3490   -3.5510   -0.8160 H         1 H8G1        0.0000
     31 H5         -4.2670   -2.6770   -1.9260 H         1 H8G1        0.0000
     32 H6         -3.7110   -3.0960   -0.2880 H         1 H8G1        0.0000
     33 H7          0.8150    4.0140   -0.8630 H         1 H8G1        0.0000
     34 H8         -0.5610    4.5160    0.1480 H         1 H8G1        0.0000
     35 H9          1.0330    4.2380    0.8890 H         1 H8G1        0.0000
     36 H10        -0.2710   -1.0400    1.9180 H         1 H8G1        0.0000
     37 H12         3.6370   -3.4040    2.0050 H         1 H8G1        0.0000
     38 H13         1.6770   -2.0220    2.4520 H         1 H8G1        0.0000
     39 H14         5.2040   -2.9540    0.1690 H         1 H8G1        0.0000
     40 H15         4.1810    1.1090   -2.8190 H         1 H8G1        0.0000
     41 H16        -3.5370    1.3520   -1.4120 H         1 H8G1        0.0000
     42 H17        -4.9160    0.4880   -2.1320 H         1 H8G1        0.0000
     43 H18        -5.9690   -1.1540   -0.9590 H         1 H8G1        0.0000
     44 H19        -5.4130   -1.5740    0.6790 H         1 H8G1        0.0000
     45 H20         2.0660    2.5860   -1.4360 H         1 H8G1        0.0000
     46 H21         0.9320    1.2660   -1.8120 H         1 H8G1        0.0000
     47 H22        -1.6150    3.0470    1.5700 H         1 H8G1        0.0000
     48 H23        -0.1510    2.5130    2.4340 H         1 H8G1        0.0000
     49 H25        -1.8590    0.7420    2.5520 H         1 H8G1        0.0000
     50 H26         1.9360    2.1540    0.9030 H         1 H8G1        0.0000
     51 H27        -2.1700    1.2310   -0.3140 H         1 H8G1        0.0000
     52 H28         5.4930   -0.9310   -2.0060 H         1 H8G1        0.0000
     53 HN         -0.5996    2.2135   -0.4298 H         1 H8G1        0.0000
@<TRIPOS>BOND
     1    2   10 1
     2    2   27 1
     3    2   28 1
     4    2   29 1
     5    3   30 1
     6    3   31 1
     7    3   32 1
     8    4   24 1
     9    4   33 1
    10    4   34 1
    11    4   35 1
    12    5   36 1
    13    6   37 1
    14    6    7 2
    15    7   38 1
    16    6    8 1
    17    8   39 1
    18    9   16 2
    19    9   23 1
    20    9   40 1
    21   10   25 1
    22   10   41 1
    23   10   42 1
    24    3   11 1
    25   11   43 1
    26   11   44 1
    27   12   16 1
    28   12   21 1
    29   12   45 1
    30   12   46 1
    31   13   20 1
    32   13   47 1
    33   13   48 1
    34   14   25 1
    35   14   26 2
    36    5   15 2
    37   15   17 1
    38   16   19 1
    39    7   17 1
    40    8   18 2
    41   17   19 2
    42   18   19 1
    43    5   20 1
    44   20   22 1
    45   20   49 1
    46   15   21 1
    47   21   50 1
    48    1   22 1
    49   14   22 1
    50   22   51 1
    51   18   23 1
    52   23   52 1
    53   13   24 1
    54   21   24 1
    55   11   25 1
    56   53   24 1
@<TRIPOS>SUBSTRUCTURE
     1 H8G1        1 RESIDUE           4 A     H8G     0 ROOT
