@<TRIPOS>MOLECULE
NS2
55 59 1 0 0 
SMALL
USER_CHARGES


@<TRIPOS>ATOM
  1 C01    -28.6040    14.0540   -19.5210 C.3   1 NS2   0.0400 
  2 C03    -28.1890    16.3270   -18.7690 C.ar  1 NS2   0.0825 
  3 C04    -27.8540    16.8300   -20.0400 C.ar  1 NS2  -0.1500 
  4 C05    -27.5540    18.2170   -20.1060 C.ar  1 NS2  -0.1500 
  5 C06    -27.6090    19.0480   -18.9290 C.ar  1 NS2  -0.0230 
  6 C07    -28.0080    18.5580   -17.6690 C.ar  1 NS2   0.0862 
  7 C08    -28.2960    17.2120   -17.6810 C.ar  1 NS2  -0.1500 
  8 C09    -28.1510    19.3510   -16.3980 C.2   1 NS2   0.5438 
  9 C12    -27.3830    20.6540   -14.2610 C.3   1 NS2   0.1401 
 10 C13    -26.0770    20.7490   -13.5030 C.3   1 NS2  -0.1600 
 11 C14    -25.2690    19.5960   -14.0440 C.3   1 NS2  -0.1600 
 12 C15    -25.6970    19.4780   -15.4830 C.3   1 NS2   0.4801 
 13 C16    -24.8840    20.5300   -16.3360 C.3   1 NS2  -0.2400 
 14 C17    -25.4610    18.0440   -15.9480 C.2   1 NS2   0.0065 
 15 C19    -24.9630    16.5090   -17.4470 C.ar  1 NS2  -0.1516 
 16 C20    -24.3970    15.9010   -18.5770 C.ar  1 NS2  -0.1500 
 17 C21    -24.5870    14.6140   -18.7550 C.ar  1 NS2  -0.1500 
 18 C22    -25.2090    13.8870   -17.7790 C.ar  1 NS2   0.1770 
 19 C23    -25.8280    14.4170   -16.6110 C.ar  1 NS2  -0.1435 
 20 C24    -25.6450    15.8010   -16.4380 C.ar  1 NS2   0.2272 
 21 C26    -26.5540    13.6280   -15.6210 C.3   1 NS2  -0.0965 
 22 C30    -27.2090    22.5670   -18.7990 C.2   1 NS2   0.1388 
 23 C31    -26.7950    22.2610   -20.1470 C.2   1 NS2   0.1388 
 24 N11    -27.1110    19.7980   -15.5150 N.am  1 NS2  -0.6602 
 25 N18    -24.9160    17.8350   -17.1320 N.pl3 1 NS2   0.0332 
 26 H18    -24.5207    18.5544   -17.7205 H     1 NS2   0.2700 
 27 N25    -26.0750    16.8060   -15.5020 N.2   1 NS2  -0.5653 
 28 N28    -27.3260    20.4570   -19.1470 N.pl3 1 NS2   0.8590 
 29 N29    -27.5570    21.4210   -18.1930 N.2   1 NS2  -0.7068 
 30 N32    -26.8760    20.9310   -20.3440 N.2   1 NS2  -0.7068 
 31 O02    -28.6250    15.0320   -18.5140 O.3   1 NS2  -0.3625 
 32 O10    -29.2820    19.7470   -16.1340 O.2   1 NS2  -0.5700 
 33 CL1    -25.2450    12.2540   -18.3380 Cl    1 NS2  -0.1770 
 34 H011   -28.9830    13.1130   -19.1220 H     1 NS2   0.0800 
 35 H012   -27.5810    13.9140   -19.8710 H     1 NS2   0.0800 
 36 H013   -29.2310    14.3750   -20.3520 H     1 NS2   0.0800 
 37 H04    -27.8270    16.1980   -20.9150 H     1 NS2   0.1500 
 38 H05    -27.2800    18.6560   -21.0540 H     1 NS2   0.1500 
 39 H08    -28.6430    16.7880   -16.7500 H     1 NS2   0.1500 
 40 H121   -27.7210    21.6490   -14.5520 H     1 NS2   0.0800 
 41 H122   -28.1430    20.1790   -13.6400 H     1 NS2   0.0800 
 42 H131   -26.2400    20.6410   -12.4310 H     1 NS2   0.0800 
 43 H132   -25.5800    21.6990   -13.7010 H     1 NS2   0.0800 
 44 H141   -25.4930    18.6790   -13.4990 H     1 NS2   0.0800 
 45 H142   -24.2020    19.8080   -13.9760 H     1 NS2   0.0800 
 46 H161   -23.8230    20.2810   -16.3050 H     1 NS2   0.0800 
 47 H162   -25.0350    21.5270   -15.9230 H     1 NS2   0.0800 
 48 H163   -25.2330    20.5080   -17.3680 H     1 NS2   0.0800 
 49 H20    -23.8190    16.4780   -19.2840 H     1 NS2   0.1500 
 50 H21    -24.2550    14.1340   -19.6640 H     1 NS2   0.1500 
 51 H261   -26.5850    12.5860   -15.9390 H     1 NS2   0.0800 
 52 H262   -27.5710    14.0090   -15.5270 H     1 NS2   0.0800 
 53 H263   -26.0490    13.7000   -14.6580 H     1 NS2   0.0800 
 54 H30    -27.2350    23.5510   -18.3540 H     1 NS2   0.1500 
 55 H31    -26.4720    22.9840   -20.8810 H     1 NS2   0.1500 
@<TRIPOS>BOND
  1   1  31  1   
  2   1  34  1   
  3   1  35  1   
  4   1  36  1   
  5   2   3  ar  
  6   2   7  ar  
  7   2  31  1   
  8   3   4  ar  
  9   3  37  1   
 10   4   5  ar  
 11   4  38  1   
 12   5   6  ar  
 13   5  28  1   
 14   6   7  ar  
 15   6   8  1   
 16   7  39  1   
 17   8  24  am  
 18   8  32  2   
 19   9  10  1   
 20   9  24  1   
 21   9  40  1   
 22   9  41  1   
 23  10  11  1   
 24  10  42  1   
 25  10  43  1   
 26  11  12  1   
 27  11  44  1   
 28  11  45  1   
 29  12  13  1   
 30  12  14  1   
 31  12  24  1   
 32  13  46  1   
 33  13  47  1   
 34  13  48  1   
 35  14  25  1   
 36  14  27  2   
 37  15  16  ar  
 38  15  20  ar  
 39  15  25  1   
 40  16  17  ar  
 41  16  49  1   
 42  17  18  ar  
 43  17  50  1   
 44  18  19  ar  
 45  18  33  1   
 46  19  20  ar  
 47  19  21  1   
 48  20  27  1   
 49  21  51  1   
 50  21  52  1   
 51  21  53  1   
 52  22  23  1   
 53  22  29  2   
 54  22  54  1   
 55  23  30  2   
 56  23  55  1   
 57  25  26  1   
 58  28  29  1   
 59  28  30  1   
@<TRIPOS>SUBSTRUCTURE
  1 NS2   6 GROUP 4 L **** 0

# MOE 2019.01 (io_trps.svl 2018.10)
