# created with PyMOL 2.3.5
@<TRIPOS>MOLECULE
NS2
55 59 1 0 0
SMALL
USER_CHARGES


@<TRIPOS>ATOM
      1 C01         5.5030    4.2420   -0.1000 C.3       1 NS21        0.0000
      2 C03         4.0470    2.3620   -0.1220 C.2       1 NS21        0.0000
      3 C04         5.0830    1.6430   -0.7060 C.2       1 NS21        0.0000
      4 C05         4.9100    0.3130   -1.0340 C.2       1 NS21        0.0000
      5 C06         3.6990   -0.3150   -0.7830 C.2       1 NS21        0.0000
      6 C07         2.6500    0.4050   -0.1940 C.2       1 NS21        0.0000
      7 C08         2.8350    1.7470    0.1400 C.2       1 NS21        0.0000
      8 C09         1.3580   -0.2560    0.0770 C.2       1 NS21        0.0000
      9 C12         1.4180    0.4600    2.4840 C.3       1 NS21        0.0000
     10 C13         0.8840   -0.3070    3.7190 C.3       1 NS21        0.0000
     11 C14        -0.5520   -0.6750    3.2610 C.3       1 NS21        0.0000
     12 C15        -0.3750   -0.9470    1.7530 C.3       1 NS21        0.0000
     13 C16        -0.2280   -2.4500    1.5080 C.3       1 NS21        0.0000
     14 C17        -1.5650   -0.4180    0.9940 C.2       1 NS21        0.0000
     15 C19        -2.7620    0.7390   -0.4030 C.2       1 NS21        0.0000
     16 C20        -3.2740    1.6050   -1.3730 C.2       1 NS21        0.0000
     17 C21        -4.6130    1.6090   -1.6450 C.2       1 NS21        0.0000
     18 C22        -5.4750    0.7580   -0.9660 C.2       1 NS21        0.0000
     19 C23        -4.9920   -0.1050   -0.0040 C.2       1 NS21        0.0000
     20 C24        -3.6350   -0.1180    0.2880 C.2       1 NS21        0.0000
     21 C26        -5.9340   -1.0260    0.7290 C.3       1 NS21        0.0000
     22 C30         3.9030   -3.5870   -1.9010 C.2       1 NS21        0.0000
     23 C31         2.6530   -3.5800   -1.2750 C.2       1 NS21        0.0000
     24 N11         0.8460   -0.2490    1.3240 N.pl3     1 NS21        0.0000
     25 N18        -1.5150    0.5060    0.0790 N.2       1 NS21        0.0000
     26 N25        -2.8470   -0.8410    1.1610 N.pl3     1 NS21        0.0000
     27 N28         3.5250   -1.6620   -1.1160 N.pl3     1 NS21        0.0000
     28 N29         4.3820   -2.3720   -1.7600 N.2       1 NS21        0.0000
     29 N32         2.4900   -2.3620   -0.8120 N.2       1 NS21        0.0000
     30 O02         4.2270    3.6700    0.1980 O.3       1 NS21        0.0000
     31 O10         0.7550   -0.8050   -0.8240 O.2       1 NS21        0.0000
     32 CL1        -7.1730    0.7820   -1.3280 Cl        1 NS21        0.0000
     33 H013        5.5120    5.2880    0.2050 H         1 NS21        0.0000
     34 H011        6.2790    3.6990    0.4400 H         1 NS21        0.0000
     35 H012        5.6900    4.1740   -1.1720 H         1 NS21        0.0000
     36 H041        6.0280    2.1260   -0.9040 H         1 NS21        0.0000
     37 H051        5.7200   -0.2400   -1.4880 H         1 NS21        0.0000
     38 H081        2.0330    2.3070    0.5980 H         1 NS21        0.0000
     39 H121        1.0750    1.4940    2.5020 H         1 NS21        0.0000
     40 H122        2.5070    0.4220    2.4540 H         1 NS21        0.0000
     41 H131        1.4760   -1.2030    3.9080 H         1 NS21        0.0000
     42 H132        0.8620    0.3360    4.5990 H         1 NS21        0.0000
     43 H141       -0.9030   -1.5700    3.7760 H         1 NS21        0.0000
     44 H142       -1.2350    0.1570    3.4290 H         1 NS21        0.0000
     45 H162       -1.1320   -2.9620    1.8400 H         1 NS21        0.0000
     46 H161       -0.0780   -2.6320    0.4440 H         1 NS21        0.0000
     47 H163        0.6290   -2.8270    2.0660 H         1 NS21        0.0000
     48 H201       -2.6120    2.2710   -1.9070 H         1 NS21        0.0000
     49 H211       -5.0040    2.2800   -2.3950 H         1 NS21        0.0000
     50 H261       -6.0170   -1.9670    0.1870 H         1 NS21        0.0000
     51 H263       -5.5490   -1.2160    1.7310 H         1 NS21        0.0000
     52 H262       -6.9160   -0.5590    0.8000 H         1 NS21        0.0000
     53 H301        4.3780   -4.4210   -2.3960 H         1 NS21        0.0000
     54 H311        1.9630   -4.4070   -1.1900 H         1 NS21        0.0000
     55 H251       -3.1510   -1.5250    1.7780 H         1 NS21        0.0000
@<TRIPOS>BOND
     1   23   29 2
     2   27   29 1
     3   22   23 1
     4    3    4 2
     5    4    5 1
     6    2    3 1
     7    1   30 1
     8    5   27 1
     9   27   28 1
    10    5    6 2
    11   22   28 2
    12    2   30 1
    13    2    7 2
    14   16   17 2
    15   17   18 1
    16   15   16 1
    17   18   32 1
    18   18   19 2
    19    6    7 1
    20    6    8 1
    21   15   25 1
    22   15   20 2
    23   14   25 2
    24   19   20 1
    25   19   21 1
    26   20   26 1
    27    8   31 2
    28    8   24 1
    29   12   13 1
    30   14   26 1
    31   12   14 1
    32   12   24 1
    33    9   24 1
    34   11   12 1
    35    9   10 1
    36   10   11 1
    37    1   33 1
    38    1   34 1
    39    1   35 1
    40    3   36 1
    41    4   37 1
    42    7   38 1
    43    9   39 1
    44    9   40 1
    45   10   41 1
    46   10   42 1
    47   11   43 1
    48   11   44 1
    49   13   45 1
    50   13   46 1
    51   13   47 1
    52   16   48 1
    53   17   49 1
    54   21   50 1
    55   21   51 1
    56   21   52 1
    57   22   53 1
    58   23   54 1
    59   26   55 1
@<TRIPOS>SUBSTRUCTURE
     1 NS21        1 RESIDUE           4 A     NS2     0 ROOT
