@<TRIPOS>MOLECULE
    PCA
   37    38     0     0     0
SMALL
USER_CHARGES


@<TRIPOS>ATOM
      1 N        -132.5800 -101.6550  629.5070 N.4        1 PCA      0.000000
      2 CA       -131.7330 -101.2590  630.6300 C.3        1 PCA      0.000000
      3 CB       -130.4110 -102.0110  630.5910 C.3        1 PCA      0.000000
      4 CG       -130.2910 -102.6060  629.1950 C.3        1 PCA      0.000000
      5 CD       -131.6900 -102.4530  628.6540 C.2        1 PCA      0.000000
      6 OE       -132.0350 -102.9800  627.5910 O.2        1 PCA      0.000000
      7 C        -131.4660  -99.7690  630.5230 C.2        1 PCA      0.000000
      8 O        -130.4730  -99.3360  629.9320 O.2        1 PCA      0.000000
      9 H2       -132.9203 -100.8438  629.0107 H          1 PCA      0.000000
     10 H3       -133.3531 -102.2180  629.8316 H          1 PCA      0.000000
     11 HA       -132.2466 -101.4716  631.5676 H          1 PCA      0.000000
     12 HB2      -130.4070 -102.8036  631.3393 H          1 PCA      0.000000
     13 HB3      -129.5860 -101.3226  630.7740 H          1 PCA      0.000000
     14 HG2      -129.5725 -102.0518  628.5911 H          1 PCA      0.000000
     15 HG3      -130.0143 -103.6589  629.2497 H          1 PCA      0.000000
     16 Y0       -132.3720  -98.9840  631.0910 N.am       2 PCA      0.000000
     17 X        -132.3450  -97.5420  630.9600 C.3        2 PCA      0.000000
     18 X        -133.5920  -96.9450  631.5830 C.2        2 PCA      0.000000
     19 X        -134.2490  -97.5890  632.3940 O.2        2 PCA      0.000000
     20 X        -133.1090  -99.4083  631.6358 H          2 PCA      0.000000
     21 X        -132.3055  -97.2756  629.9038 H          2 PCA      0.000000
     22 X        -131.4633  -97.1487  631.4660 H          2 PCA      0.000000
     23 X        -133.9350  -95.7100  631.2020 N.am       3 PCA      0.000000
     24 X        -135.0710  -95.0460  631.8460 C.3        3 PCA      0.000000
     25 X        -136.3680  -95.7750  631.4970 C.2        3 PCA      0.000000
     26 X        -136.3800  -96.5940  630.5860 O.2        3 PCA      0.000000
     27 X        -135.0290  -93.6360  631.2510 C.3        3 PCA      0.000000
     28 X        -134.4410  -93.8410  629.8930 C.3        3 PCA      0.000000
     29 X        -133.4470  -94.9630  630.0280 C.3        3 PCA      0.000000
     30 X        -134.9310  -95.0099  632.9264 H          3 PCA      0.000000
     31 X        -137.2713  -95.5688  632.0518 H          3 PCA      0.000000
     32 X        -136.0316  -93.2142  631.1805 H          3 PCA      0.000000
     33 X        -134.3865  -92.9902  631.8495 H          3 PCA      0.000000
     34 X        -133.9411  -92.9324  629.5573 H          3 PCA      0.000000
     35 X        -135.2230  -94.1189  629.1864 H          3 PCA      0.000000
     36 X        -132.4429  -94.5760  630.2015 H          3 PCA      0.000000
     37 X        -133.4634  -95.5954  629.1403 H          3 PCA      0.000000
@<TRIPOS>BOND
     1    1    2 1
     2    1    5 1
     3    1    9 1
     4    1   10 1
     5    2    3 1
     6    2    7 1
     7    2   11 1
     8    3    4 1
     9    3   12 1
    10    3   13 1
    11    4    5 1
    12    4   14 1
    13    4   15 1
    14    5    6 2
    15    7    8 2
    16    7   16 am
    17   16   17 1
    18   16   20 1
    19   17   18 1
    20   17   21 1
    21   17   22 1
    22   18   19 2
    23   18   23 am
    24   23   24 1
    25   23   29 1
    26   24   25 1
    27   24   27 1
    28   24   30 1
    29   25   26 2
    30   25   31 1
    31   27   28 1
    32   27   32 1
    33   27   33 1
    34   28   29 1
    35   28   34 1
    36   28   35 1
    37   29   36 1
    38   29   37 1
