# created with PyMOL 2.3.5
@<TRIPOS>MOLECULE
A4X
76 80 1 0 0
SMALL
USER_CHARGES


@<TRIPOS>ATOM
      1 C4         -6.4090    0.1240    0.2830 C.2       1 A4X1        0.0000
      2 C14        -6.4270   -3.4490    0.9430 C.3       1 A4X1        0.0000
      3 C5         -3.4680   -0.4650    0.9780 C.3       1 A4X1        0.0000
      4 C6         -4.0570   -0.9060   -1.4160 C.3       1 A4X1        0.0000
      5 C11        -5.8190    1.4550   -0.1070 C.3       1 A4X1        0.0000
      6 C7         -6.6700   -1.9770    0.7330 C.2       1 A4X1        0.0000
      7 C8         -1.7130   -2.1160    0.3470 C.3       1 A4X1        0.0000
      8 C9         -2.0750   -2.3880   -1.1280 C.3       1 A4X1        0.0000
      9 C10        -0.4600    0.1330   -1.1820 C.3       1 A4X1        0.0000
     10 C12         0.1350    1.3320   -0.4410 C.3       1 A4X1        0.0000
     11 C13         1.6050    1.4960   -0.8330 C.3       1 A4X1        0.0000
     12 N1         -5.7540   -1.0600    0.3400 N.pl3     1 A4X1        0.0000
     13 N2         -1.8710   -0.0240   -0.8060 N.3       1 A4X1        0.0000
     14 C3         -2.5470   -1.0220   -1.6770 C.3       1 A4X1        0.0000
     15 N3         -7.6470   -0.1000    0.6340 N.2       1 A4X1        0.0000
     16 C21         5.5440   -1.3810   -1.3720 C.3       1 A4X1        0.0000
     17 C23         6.3400   -2.5930   -0.8830 C.3       1 A4X1        0.0000
     18 C18         6.7570   -2.3770    0.5720 C.3       1 A4X1        0.0000
     19 F1          7.5530   -1.2290    0.6640 F         1 A4X1        0.0000
     20 F2          7.4850   -3.4850    1.0190 F         1 A4X1        0.0000
     21 C24         5.5090   -2.2030    1.4400 C.3       1 A4X1        0.0000
     22 C22         4.7140   -0.9910    0.9520 C.3       1 A4X1        0.0000
     23 C17         4.2960   -1.2070   -0.5040 C.3       1 A4X1        0.0000
     24 C16         3.5130   -0.0130   -0.9840 C.2       1 A4X1        0.0000
     25 O1          3.9130    0.6350   -1.9280 O.2       1 A4X1        0.0000
     26 N5          2.3670    0.3350   -0.3650 N.pl3     1 A4X1        0.0000
     27 C15         2.1570    2.7470   -0.2000 C.2       1 A4X1        0.0000
     28 C25         2.2970    3.9350   -0.8970 C.2       1 A4X1        0.0000
     29 C27         2.8010    4.9460   -0.1880 C.2       1 A4X1        0.0000
     30 S1          3.1310    4.4090    1.4540 S.3       1 A4X1        0.0000
     31 C26         2.5430    2.7950    1.0760 C.2       1 A4X1        0.0000
     32 C2         -1.9980   -0.6110    0.5550 C.3       1 A4X1        0.0000
     33 C1         -4.3410   -1.3000    0.0360 C.3       1 A4X1        0.0000
     34 N4         -7.8020   -1.3480    0.8990 N.2       1 A4X1        0.0000
     35 C20        -6.5530    2.0000   -1.3330 C.3       1 A4X1        0.0000
     36 C19        -5.9670    2.4390    1.0550 C.3       1 A4X1        0.0000
     37 H1         -6.0380   -3.6140    1.9480 H         1 A4X1        0.0000
     38 H2         -7.3640   -3.9930    0.8230 H         1 A4X1        0.0000
     39 H3         -5.7030   -3.8060    0.2110 H         1 A4X1        0.0000
     40 H4         -3.5910   -0.8220    2.0010 H         1 A4X1        0.0000
     41 H5         -3.7640    0.5820    0.9170 H         1 A4X1        0.0000
     42 H6         -4.3790    0.1210   -1.5850 H         1 A4X1        0.0000
     43 H7         -4.5960   -1.5750   -2.0880 H         1 A4X1        0.0000
     44 H8         -4.7620    1.3280   -0.3430 H         1 A4X1        0.0000
     45 H9         -2.3390   -2.7160    1.0080 H         1 A4X1        0.0000
     46 H10        -0.6590   -2.3310    0.5240 H         1 A4X1        0.0000
     47 H11        -1.1990   -2.7360   -1.6760 H         1 A4X1        0.0000
     48 H12        -2.8790   -3.1210   -1.1920 H         1 A4X1        0.0000
     49 H13        -0.3860    0.2970   -2.2570 H         1 A4X1        0.0000
     50 H14         0.0900   -0.7690   -0.9140 H         1 A4X1        0.0000
     51 H15        -0.4150    2.2340   -0.7090 H         1 A4X1        0.0000
     52 H16         0.0620    1.1680    0.6340 H         1 A4X1        0.0000
     53 H17         1.6860    1.5710   -1.9170 H         1 A4X1        0.0000
     54 H19        -2.3020   -0.8950   -2.7320 H         1 A4X1        0.0000
     55 H20         6.1640   -0.4870   -1.3000 H         1 A4X1        0.0000
     56 H21         5.2470   -1.5350   -2.4090 H         1 A4X1        0.0000
     57 H22         5.7200   -3.4870   -0.9550 H         1 A4X1        0.0000
     58 H23         7.2290   -2.7170   -1.5020 H         1 A4X1        0.0000
     59 H24         4.8900   -3.0970    1.3690 H         1 A4X1        0.0000
     60 H25         5.8070   -2.0490    2.4780 H         1 A4X1        0.0000
     61 H26         3.8250   -0.8670    1.5710 H         1 A4X1        0.0000
     62 H27         5.3330   -0.0970    1.0240 H         1 A4X1        0.0000
     63 H28         3.6770   -2.1010   -0.5750 H         1 A4X1        0.0000
     64 H29         2.0470   -0.1840    0.3890 H         1 A4X1        0.0000
     65 H30         2.0180    4.0350   -1.9350 H         1 A4X1        0.0000
     66 H31         2.9800    5.9420   -0.5650 H         1 A4X1        0.0000
     67 H33         2.5040    1.9690    1.7700 H         1 A4X1        0.0000
     68 H35        -1.3170   -0.1580    1.2750 H         1 A4X1        0.0000
     69 H36        -4.1150   -2.3580    0.1760 H         1 A4X1        0.0000
     70 H37        -6.1260    2.9620   -1.6150 H         1 A4X1        0.0000
     71 H38        -6.4480    1.2980   -2.1610 H         1 A4X1        0.0000
     72 H39        -7.6100    2.1260   -1.0970 H         1 A4X1        0.0000
     73 H40        -5.4430    2.0500    1.9290 H         1 A4X1        0.0000
     74 H41        -5.5390    3.4010    0.7740 H         1 A4X1        0.0000
     75 H42        -7.0230    2.5660    1.2910 H         1 A4X1        0.0000
     76 HN         -2.3487    0.8647   -0.8522 H         1 A4X1        0.0000
@<TRIPOS>BOND
     1    1    5 1
     2    1   12 1
     3    1   15 2
     4    2    6 1
     5    3   32 1
     6    3   33 1
     7    4   14 1
     8    4   33 1
     9    5   35 1
    10    5   36 1
    11    6   12 1
    12    6   34 2
    13    7    8 1
    14    7   32 1
    15    8   14 1
    16    9   10 1
    17    9   13 1
    18   10   11 1
    19   11   26 1
    20   11   27 1
    21   12   33 1
    22   13   14 1
    23   13   32 1
    24   15   34 1
    25   16   17 1
    26   16   23 1
    27   17   18 1
    28   18   19 1
    29   18   20 1
    30   18   21 1
    31   21   22 1
    32   22   23 1
    33   23   24 1
    34   24   25 2
    35   24   26 1
    36   27   28 1
    37   27   31 2
    38   28   29 2
    39   29   30 1
    40   30   31 1
    41    2   37 1
    42    2   38 1
    43    2   39 1
    44    3   40 1
    45    3   41 1
    46    4   42 1
    47    4   43 1
    48    5   44 1
    49    7   45 1
    50    7   46 1
    51    8   47 1
    52    8   48 1
    53    9   49 1
    54    9   50 1
    55   10   51 1
    56   10   52 1
    57   11   53 1
    58   14   54 1
    59   16   55 1
    60   16   56 1
    61   17   57 1
    62   17   58 1
    63   21   59 1
    64   21   60 1
    65   22   61 1
    66   22   62 1
    67   23   63 1
    68   26   64 1
    69   28   65 1
    70   29   66 1
    71   31   67 1
    72   32   68 1
    73   33   69 1
    74   35   70 1
    75   35   71 1
    76   35   72 1
    77   36   73 1
    78   36   74 1
    79   36   75 1
    80   76   13 1
@<TRIPOS>SUBSTRUCTURE
     1 A4X1        1 RESIDUE           4 A     A4X     0 ROOT
