# created with PyMOL 2.3.5
@<TRIPOS>MOLECULE
NO3
4 3 1                   
SMALL
USER_CHARGES
@<TRIPOS>ATOM
1	   N	-0.000	0.000	-0.001	N.pl3	1	NO30	0.000	
2	  O1	-1.218	0.017	0.000	O.2	1	NO30	0.000	
3	  O2	0.623	1.046	0.000	O.2	1	NO30	0.000	
4	  O3	0.595	-1.063	0.000	O.2	1	NO30	0.000	
@<TRIPOS>BOND
1 1 2 2
2 1 3 1
3 1 4 1
@<TRIPOS>SUBSTRUCTURE
1	NO30	1	GROUP	1 ****	NO3
