# created with PyMOL 2.3.5
@<TRIPOS>MOLECULE
T4E
32 34 1 0 0
SMALL
USER_CHARGES


@<TRIPOS>ATOM
      1 N2          2.2760   -2.8500    0.2560 N.2       1 T4E1        0.0000
      2 N1          1.0850   -2.3800    0.3820 N.2       1 T4E1        0.0000
      3 C6          0.8550   -1.0790    0.2400 C.2       1 T4E1        0.0000
      4 C5          1.9370   -0.2240   -0.0510 C.2       1 T4E1        0.0000
      5 N4          3.1510   -0.7550   -0.1730 N.2       1 T4E1        0.0000
      6 C3          3.3100   -2.0620   -0.0180 C.2       1 T4E1        0.0000
      7 C10        -3.0790    0.4800    0.6550 C.2       1 T4E1        0.0000
      8 C11        -2.0100    1.1250    1.2620 C.2       1 T4E1        0.0000
      9 C12        -0.7340    0.6220    1.1300 C.2       1 T4E1        0.0000
     10 C7         -0.5160   -0.5370    0.3850 C.2       1 T4E1        0.0000
     11 C8         -1.5910   -1.1830   -0.2240 C.2       1 T4E1        0.0000
     12 C9         -2.8670   -0.6780   -0.0830 C.2       1 T4E1        0.0000
     13 C16         1.3350    3.9560   -0.5330 C.2       1 T4E1        0.0000
     14 C17         2.3960    3.4960    0.2260 C.2       1 T4E1        0.0000
     15 C18         2.5960    2.1400    0.3870 C.2       1 T4E1        0.0000
     16 C13         1.7270    1.2330   -0.2190 C.2       1 T4E1        0.0000
     17 C14         0.6590    1.7030   -0.9820 C.2       1 T4E1        0.0000
     18 C15         0.4690    3.0620   -1.1350 C.2       1 T4E1        0.0000
     19 N3          4.5730   -2.6150   -0.1440 N.pl3     1 T4E1        0.0000
     20 CL1        -4.2070   -1.4820   -0.8400 Cl        1 T4E1        0.0000
     21 O1         -4.3360    0.9780    0.7880 O.3       1 T4E1        0.0000
     22 H1         -2.1800    2.0230    1.8380 H         1 T4E1        0.0000
     23 H2          0.0970    1.1260    1.6020 H         1 T4E1        0.0000
     24 H3         -1.4250   -2.0810   -0.8020 H         1 T4E1        0.0000
     25 H4          1.1800    5.0180   -0.6510 H         1 T4E1        0.0000
     26 H5          3.0690    4.1990    0.6940 H         1 T4E1        0.0000
     27 H6          3.4260    1.7820    0.9790 H         1 T4E1        0.0000
     28 H7         -0.0180    1.0060   -1.4530 H         1 T4E1        0.0000
     29 H8         -0.3580    3.4270   -1.7260 H         1 T4E1        0.0000
     30 H9          5.3330   -2.0470   -0.3440 H         1 T4E1        0.0000
     31 H10         4.6970   -3.5710   -0.0330 H         1 T4E1        0.0000
     32 H11        -4.5830    1.6110    0.1000 H         1 T4E1        0.0000
@<TRIPOS>BOND
     1   13   18 2
     2   13   14 1
     3   17   18 1
     4   14   15 2
     5   16   17 2
     6   15   16 1
     7    4   16 1
     8    4    5 2
     9    5    6 1
    10    6   19 1
    11    3    4 1
    12    1    6 2
    13    3   10 1
    14    2    3 2
    15    1    2 1
    16   10   11 2
    17    9   10 1
    18   11   12 1
    19    8    9 2
    20   12   20 1
    21    7   12 2
    22    7    8 1
    23    7   21 1
    24    8   22 1
    25    9   23 1
    26   11   24 1
    27   13   25 1
    28   14   26 1
    29   15   27 1
    30   17   28 1
    31   18   29 1
    32   19   30 1
    33   19   31 1
    34   21   32 1
@<TRIPOS>SUBSTRUCTURE
     1 T4E1        1 RESIDUE           4 A     T4E     0 ROOT
