# created with PyMOL 2.3.5
@<TRIPOS>MOLECULE
200
23 23 1                 
SMALL
USER_CHARGES
@<TRIPOS>ATOM
1	   N	-1.948	1.453	-0.812	N.3	1	2000	0.000	
2	  CA	-2.197	0.059	-0.422	C.3	1	2000	0.000	
3	   C	-3.669	-0.134	-0.161	C.2	1	2000	0.000	
4	   O	-4.372	0.821	0.071	O.co2	1	2000	0.000	
5	 OXT	-4.199	-1.367	-0.185	O.3	1	2000	0.000	
6	  CB	-1.407	-0.264	0.848	C.3	1	2000	0.000	
7	  CG	0.069	-0.191	0.553	C.2	1	2000	0.000	
8	 CD1	0.746	-1.319	0.129	C.2	1	2000	0.000	
9	 CD2	0.747	1.004	0.713	C.2	1	2000	0.000	
10	 CE1	2.099	-1.250	-0.146	C.2	1	2000	0.000	
11	 CE2	2.100	1.072	0.443	C.2	1	2000	0.000	
12	  CZ	2.778	-0.055	0.013	C.2	1	2000	0.000	
13	  CL	4.478	0.030	-0.326	Cl	1	2000	0.000	
14	   H	-2.254	2.029	-0.042	 H	1	2000	0.000	
15	  H2	-2.564	1.652	-1.586	 H	1	2000	0.000	
16	  HA	-1.881	-0.605	-1.226	 H	1	2000	0.000	
17	 HXT	-5.143	-1.491	-0.017	 H	1	2000	0.000	
18	 HB2	-1.659	0.456	1.626	 H	1	2000	0.000	
19	 HB3	-1.660	-1.269	1.187	 H	1	2000	0.000	
20	 HD1	0.216	-2.251	0.004	 H	1	2000	0.000	
21	 HD2	0.218	1.884	1.049	 H	1	2000	0.000	
22	 HE1	2.627	-2.131	-0.482	 H	1	2000	0.000	
23	 HE2	2.630	2.005	0.567	 H	1	2000	0.000	
@<TRIPOS>BOND
1 1 2 1
2 1 14 1
3 1 15 1
4 2 3 1
5 2 6 1
6 2 16 1
7 3 4 2
8 3 5 1
9 5 17 1
10 6 7 1
11 6 18 1
12 6 19 1
13 7 8 1
14 7 9 2
15 8 10 2
16 8 20 1
17 9 11 1
18 9 21 1
19 10 12 1
20 10 22 1
21 11 12 2
22 11 23 1
23 12 13 1
@<TRIPOS>SUBSTRUCTURE
1	2000	1	GROUP	1 ****	200
