# created with PyMOL 2.3.5
@<TRIPOS>MOLECULE
NRK
50 53 1 0 0
SMALL
USER_CHARGES


@<TRIPOS>ATOM
      1 C01        -0.7410   -2.0630    0.5350 C.3       1 NRK1        0.0000
      2 C02         0.0750   -1.9500    1.8240 C.3       1 NRK1        0.0000
      3 C03         0.6370   -1.3980    0.5120 C.3       1 NRK1        0.0000
      4 C04         0.6840    0.1220    0.3490 C.3       1 NRK1        0.0000
      5 C05        -1.9470   -1.1710    0.3950 C.2       1 NRK1        0.0000
      6 C06         1.7650   -2.1580   -0.1360 C.2       1 NRK1        0.0000
      7 C07         2.9210   -2.4180    0.5760 C.2       1 NRK1        0.0000
      8 C08         3.9580   -3.1160   -0.0200 C.2       1 NRK1        0.0000
      9 C09         3.8350   -3.5530   -1.3280 C.2       1 NRK1        0.0000
     10 C10         2.6780   -3.2920   -2.0380 C.2       1 NRK1        0.0000
     11 C11         1.6420   -2.5990   -1.4400 C.2       1 NRK1        0.0000
     12 O12         2.0460    0.5520    0.2850 O.3       1 NRK1        0.0000
     13 C13         2.2660    1.8850    0.1390 C.2       1 NRK1        0.0000
     14 C14         3.5600    2.3910    0.0690 C.2       1 NRK1        0.0000
     15 N15         3.7320    3.6950   -0.0740 N.2       1 NRK1        0.0000
     16 C16         2.6990    4.5100   -0.1490 C.2       1 NRK1        0.0000
     17 N17         1.4590    4.0690   -0.0860 N.2       1 NRK1        0.0000
     18 C18         1.2030    2.7780    0.0510 C.2       1 NRK1        0.0000
     19 O19        -1.8040    0.0270    0.2700 O.2       1 NRK1        0.0000
     20 N20        -3.1850   -1.7030    0.4090 N.pl3     1 NRK1        0.0000
     21 C21        -4.2950   -0.8940    0.1650 C.2       1 NRK1        0.0000
     22 C22        -5.5570   -1.4690    0.0670 C.2       1 NRK1        0.0000
     23 C23        -6.6500   -0.6570   -0.1750 C.2       1 NRK1        0.0000
     24 C24        -6.4420    0.7110   -0.3110 C.2       1 NRK1        0.0000
     25 C25        -5.1590    1.2140   -0.2010 C.2       1 NRK1        0.0000
     26 N26        -4.1370    0.4130    0.0350 N.2       1 NRK1        0.0000
     27 C27         2.9430    5.9880   -0.3100 C.3       1 NRK1        0.0000
     28 C28         4.7480    1.4680    0.1540 C.3       1 NRK1        0.0000
     29 F29        -7.4830    1.5400   -0.5480 F         1 NRK1        0.0000
     30 F30         5.0890   -3.3700    0.6740 F         1 NRK1        0.0000
     31 H011       -0.8310   -3.0500    0.0810 H         1 NRK1        0.0000
     32 H021       -0.2600   -1.2300    2.5710 H         1 NRK1        0.0000
     33 H022        0.5230   -2.8630    2.2190 H         1 NRK1        0.0000
     34 H041        0.1710    0.4050   -0.5700 H         1 NRK1        0.0000
     35 H042        0.1930    0.5950    1.1990 H         1 NRK1        0.0000
     36 H071        3.0160   -2.0760    1.5960 H         1 NRK1        0.0000
     37 H091        4.6430   -4.0970   -1.7940 H         1 NRK1        0.0000
     38 H101        2.5820   -3.6320   -3.0580 H         1 NRK1        0.0000
     39 H111        0.7360   -2.3990   -1.9940 H         1 NRK1        0.0000
     40 H181        0.1840    2.4240    0.0970 H         1 NRK1        0.0000
     41 H201       -3.3040   -2.6490    0.5880 H         1 NRK1        0.0000
     42 H221       -5.6820   -2.5360    0.1770 H         1 NRK1        0.0000
     43 H231       -7.6430   -1.0750   -0.2570 H         1 NRK1        0.0000
     44 H251       -4.9910    2.2760   -0.3060 H         1 NRK1        0.0000
     45 H271        2.9890    6.2350   -1.3710 H         1 NRK1        0.0000
     46 H273        2.1300    6.5440    0.1570 H         1 NRK1        0.0000
     47 H272        3.8860    6.2550    0.1660 H         1 NRK1        0.0000
     48 H282        5.0210    1.1350   -0.8480 H         1 NRK1        0.0000
     49 H281        5.5880    1.9970    0.6030 H         1 NRK1        0.0000
     50 H283        4.4930    0.6040    0.7670 H         1 NRK1        0.0000
@<TRIPOS>BOND
     1    1    2 1
     2    2    3 1
     3    1    5 1
     4    1    3 1
     5    5   19 2
     6    5   20 1
     7   20   21 1
     8   21   26 2
     9   21   22 1
    10   25   26 1
    11   24   25 2
    12   22   23 2
    13    3    6 1
    14    3    4 1
    15   23   24 1
    16   24   29 1
    17    6   11 2
    18    6    7 1
    19   10   11 1
    20    4   12 1
    21    7    8 2
    22    9   10 2
    23    8    9 1
    24    8   30 1
    25   12   13 1
    26   13   18 2
    27   17   18 1
    28   13   14 1
    29   16   17 2
    30   14   28 1
    31   14   15 2
    32   15   16 1
    33   16   27 1
    34    1   31 1
    35    2   32 1
    36    2   33 1
    37    4   34 1
    38    4   35 1
    39    7   36 1
    40    9   37 1
    41   10   38 1
    42   11   39 1
    43   18   40 1
    44   20   41 1
    45   22   42 1
    46   23   43 1
    47   25   44 1
    48   27   45 1
    49   27   46 1
    50   27   47 1
    51   28   48 1
    52   28   49 1
    53   28   50 1
@<TRIPOS>SUBSTRUCTURE
     1 NRK1        1 RESIDUE           4 A     NRK     0 ROOT
