# created with PyMOL 2.3.5
@<TRIPOS>MOLECULE
A6L
65 64 1 0 0
SMALL
USER_CHARGES


@<TRIPOS>ATOM
      1 CA         -4.3770   -0.2530   -0.3200 C.3       1 A6L1        0.0000
      2 C          -5.7750    0.0970    0.1210 C.2       1 A6L1        0.0000
      3 O          -6.7780   -0.7730   -0.0730 O.3       1 A6L1        0.0000
      4 C3         -3.4320    0.9020    0.0160 C.3       1 A6L1        0.0000
      5 C4         -2.0130    0.5460   -0.4320 C.3       1 A6L1        0.0000
      6 C5         -1.0670    1.7010   -0.0970 C.3       1 A6L1        0.0000
      7 C6          0.3520    1.3450   -0.5450 C.3       1 A6L1        0.0000
      8 C7          1.2980    2.5000   -0.2090 C.3       1 A6L1        0.0000
      9 C8          2.7170    2.1440   -0.6570 C.3       1 A6L1        0.0000
     10 C9          3.6480    3.2820   -0.3260 C.2       1 A6L1        0.0000
     11 C10         4.7450    3.0540    0.3530 C.2       1 A6L1        0.0000
     12 C11         5.1620    1.6380    0.6570 C.3       1 A6L1        0.0000
     13 C12         6.6000    1.4180    0.1810 C.3       1 A6L1        0.0000
     14 C13         7.0240   -0.0200    0.4900 C.3       1 A6L1        0.0000
     15 C14         8.4620   -0.2400    0.0140 C.3       1 A6L1        0.0000
     16 C15         8.8860   -1.6780    0.3230 C.3       1 A6L1        0.0000
     17 C16        10.3230   -1.8980   -0.1530 C.3       1 A6L1        0.0000
     18 C17        10.7470   -3.3360    0.1550 C.3       1 A6L1        0.0000
     19 C18        12.1850   -3.5560   -0.3200 C.3       1 A6L1        0.0000
     20 OXT        -5.9920    1.1620    0.6500 O.co2     1 A6L1        0.0000
     21 H1         -4.0480   -1.1540    0.1970 H         1 A6L1        0.0000
     22 H2         -4.3690   -0.4280   -1.3960 H         1 A6L1        0.0000
     23 H4         -3.7610    1.8030   -0.5020 H         1 A6L1        0.0000
     24 H5         -3.4400    1.0770    1.0920 H         1 A6L1        0.0000
     25 H6         -1.6840   -0.3550    0.0850 H         1 A6L1        0.0000
     26 H7         -2.0040    0.3710   -1.5080 H         1 A6L1        0.0000
     27 H8         -1.3960    2.6020   -0.6140 H         1 A6L1        0.0000
     28 H9         -1.0750    1.8760    0.9790 H         1 A6L1        0.0000
     29 H10         0.6810    0.4440   -0.0270 H         1 A6L1        0.0000
     30 H11         0.3600    1.1700   -1.6200 H         1 A6L1        0.0000
     31 H12         0.9680    3.4010   -0.7260 H         1 A6L1        0.0000
     32 H13         1.2890    2.6750    0.8670 H         1 A6L1        0.0000
     33 H14         3.0460    1.2430   -0.1400 H         1 A6L1        0.0000
     34 H15         2.7250    1.9690   -1.7330 H         1 A6L1        0.0000
     35 H16         3.4110    4.2850   -0.6490 H         1 A6L1        0.0000
     36 H17         5.3490    3.8810    0.6950 H         1 A6L1        0.0000
     37 H18         5.1050    1.4650    1.7320 H         1 A6L1        0.0000
     38 H19         4.4980    0.9450    0.1410 H         1 A6L1        0.0000
     39 H20         6.6580    1.5910   -0.8930 H         1 A6L1        0.0000
     40 H21         7.2640    2.1110    0.6970 H         1 A6L1        0.0000
     41 H22         6.9660   -0.1930    1.5640 H         1 A6L1        0.0000
     42 H23         6.3600   -0.7130   -0.0260 H         1 A6L1        0.0000
     43 H24         8.5190   -0.0670   -1.0610 H         1 A6L1        0.0000
     44 H25         9.1250    0.4530    0.5300 H         1 A6L1        0.0000
     45 H26         8.8280   -1.8510    1.3970 H         1 A6L1        0.0000
     46 H27         8.2220   -2.3710   -0.1930 H         1 A6L1        0.0000
     47 H28        10.3810   -1.7250   -1.2280 H         1 A6L1        0.0000
     48 H29        10.9870   -1.2050    0.3630 H         1 A6L1        0.0000
     49 H30        10.6890   -3.5090    1.2300 H         1 A6L1        0.0000
     50 H31        10.0830   -4.0290   -0.3610 H         1 A6L1        0.0000
     51 H32        12.4870   -4.5800   -0.1010 H         1 A6L1        0.0000
     52 H33        12.2420   -3.3830   -1.3950 H         1 A6L1        0.0000
     53 H34        12.8490   -2.8630    0.1960 H         1 A6L1        0.0000
     54 C1         -8.0980   -0.3680    0.3770 C.3       1 A6L1        0.0000
     55 C2         -9.1040   -1.4810    0.0730 C.3       1 A6L1        0.0000
     56 C19       -10.4680   -1.1090    0.6580 C.3       1 A6L1        0.0000
     57 O2        -11.3760   -2.1970    0.4760 O.3       1 A6L1        0.0000
     58 O1         -9.2200   -1.6430   -1.3420 O.3       1 A6L1        0.0000
     59 H3         -8.0750   -0.1830    1.4510 H         1 A6L1        0.0000
     60 H35        -8.3960    0.5430   -0.1420 H         1 A6L1        0.0000
     61 H36        -8.7590   -2.4140    0.5190 H         1 A6L1        0.0000
     62 H37       -10.3620   -0.8980    1.7220 H         1 A6L1        0.0000
     63 H38       -10.8520   -0.2250    0.1490 H         1 A6L1        0.0000
     64 H39       -12.2630   -2.0310    0.8240 H         1 A6L1        0.0000
     65 H40        -9.5230   -0.8500   -1.8060 H         1 A6L1        0.0000
@<TRIPOS>BOND
     1    2   20 2
     2    1    2 1
     3    1    4 1
     4    2    3 1
     5    4    5 1
     6    5    6 1
     7    6    7 1
     8    7    8 1
     9   18   19 1
    10   17   18 1
    11   16   17 1
    12    8    9 1
    13    9   10 1
    14   15   16 1
    15   14   15 1
    16   10   11 2
    17   13   14 1
    18   12   13 1
    19   11   12 1
    20    1   21 1
    21    1   22 1
    22    4   23 1
    23    4   24 1
    24    5   25 1
    25    5   26 1
    26    6   27 1
    27    6   28 1
    28    7   29 1
    29    7   30 1
    30    8   31 1
    31    8   32 1
    32    9   33 1
    33    9   34 1
    34   10   35 1
    35   11   36 1
    36   12   37 1
    37   12   38 1
    38   13   39 1
    39   13   40 1
    40   14   41 1
    41   14   42 1
    42   15   43 1
    43   15   44 1
    44   16   45 1
    45   16   46 1
    46   17   47 1
    47   17   48 1
    48   18   49 1
    49   18   50 1
    50   19   51 1
    51   19   52 1
    52   19   53 1
    53    3   54 1
    54   54   55 1
    55   55   56 1
    56   56   57 1
    57   55   58 1
    58   54   59 1
    59   54   60 1
    60   55   61 1
    61   56   62 1
    62   56   63 1
    63   57   64 1
    64   58   65 1
@<TRIPOS>SUBSTRUCTURE
     1 A6L1        1 RESIDUE           4 A     A6L     0 ROOT
