# created with PyMOL 2.3.5
@<TRIPOS>MOLECULE
KNW
69 72 1 0 0
SMALL
USER_CHARGES


@<TRIPOS>ATOM
      1 C4          7.6940    0.3200   -0.5700 C.3       1 KNW1        0.0000
      2 C14         0.0380   -3.0000    0.1040 C.2       1 KNW1        0.0000
      3 C5          8.6150    1.4120   -0.0210 C.3       1 KNW1        0.0000
      4 C6          9.8400    1.5500   -0.9280 C.3       1 KNW1        0.0000
      5 C11         4.2700   -3.1550   -0.7280 C.2       1 KNW1        0.0000
      6 C7         10.7470    2.6250   -0.3870 C.2       1 KNW1        0.0000
      7 C8          5.7030   -0.8600   -0.0910 C.2       1 KNW1        0.0000
      8 C9          6.3660   -2.0360   -0.4350 C.2       1 KNW1        0.0000
      9 C10         5.6520   -3.1760   -0.7450 C.2       1 KNW1        0.0000
     10 C12         3.5990   -1.9860   -0.4010 C.2       1 KNW1        0.0000
     11 C13         1.5100   -3.0550   -0.0010 C.2       1 KNW1        0.0000
     12 N1          6.4650    0.2670    0.2330 N.pl3     1 KNW1        0.0000
     13 N2          2.1980   -1.9630   -0.3890 N.pl3     1 KNW1        0.0000
     14 C3          5.6970    1.5100    0.1010 C.3       1 KNW1        0.0000
     15 C1          4.3720    1.3400    0.8780 C.3       1 KNW1        0.0000
     16 C15        -0.6770   -4.1310    0.5060 C.2       1 KNW1        0.0000
     17 C16        -2.0490   -4.0750    0.6090 C.2       1 KNW1        0.0000
     18 C17        -2.7220   -2.8950    0.3130 C.2       1 KNW1        0.0000
     19 C18        -4.7020   -1.6000    0.0970 C.3       1 KNW1        0.0000
     20 C19        -6.2170   -1.7340    0.2700 C.3       1 KNW1        0.0000
     21 C2          3.5810    2.6220    0.8240 C.2       1 KNW1        0.0000
     22 C20        -6.8890   -0.4030   -0.0710 C.3       1 KNW1        0.0000
     23 C21        -8.4030   -0.5370    0.1010 C.3       1 KNW1        0.0000
     24 C22        -9.0650    0.7750   -0.2350 C.2       1 KNW1        0.0000
     25 C23        -9.6530    0.9550   -1.4720 C.2       1 KNW1        0.0000
     26 C24       -10.2610    2.1590   -1.7810 C.2       1 KNW1        0.0000
     27 C25       -10.2810    3.1830   -0.8480 C.2       1 KNW1        0.0000
     28 C26        -9.6930    3.0020    0.3890 C.2       1 KNW1        0.0000
     29 C27        -9.0900    1.7960    0.6980 C.2       1 KNW1        0.0000
     30 C28        -2.0140   -1.7680   -0.0870 C.2       1 KNW1        0.0000
     31 C29        -0.6420   -1.8160   -0.1920 C.2       1 KNW1        0.0000
     32 C30         4.3160   -0.8340   -0.0830 C.2       1 KNW1        0.0000
     33 F1        -10.8350    2.3360   -2.9910 F         1 KNW1        0.0000
     34 O1          2.5170    2.6520    0.2520 O.co2     1 KNW1        0.0000
     35 O2          4.0580    3.7300    1.4120 O.3       1 KNW1        0.0000
     36 O3         10.4450    3.2200    0.6210 O.co2     1 KNW1        0.0000
     37 O4         11.8900    2.9210   -1.0240 O.3       1 KNW1        0.0000
     38 O5          2.1000   -4.0840    0.2610 O.2       1 KNW1        0.0000
     39 O6         -4.0750   -2.8430    0.4160 O.3       1 KNW1        0.0000
     40 O7          3.6290    0.2980    0.2360 O.3       1 KNW1        0.0000
     41 CL1        -8.3580    1.5660    2.2560 Cl        1 KNW1        0.0000
     42 H42         8.2023   -0.6429   -0.5201 H         1 KNW1        0.0000
     43 H43         7.4416    0.5445   -1.6063 H         1 KNW1        0.0000
     44 H52         8.9366    1.1438    0.9854 H         1 KNW1        0.0000
     45 H53         8.0771    2.3595    0.0098 H         1 KNW1        0.0000
     46 H62         9.5185    1.8185   -1.9343 H         1 KNW1        0.0000
     47 H63        10.3778    0.6024   -0.9591 H         1 KNW1        0.0000
     48 H11         3.7130   -4.0483   -0.9692 H         1 KNW1        0.0000
     49 H9          7.4455   -2.0559   -0.4593 H         1 KNW1        0.0000
     50 H10         6.1741   -4.0860   -1.0013 H         1 KNW1        0.0000
     51 H2          1.7040   -1.1284   -0.6710 H         1 KNW1        0.0000
     52 H32         5.4862    1.7041   -0.9507 H         1 KNW1        0.0000
     53 H33         6.2656    2.3397    0.5211 H         1 KNW1        0.0000
     54 H1          4.5773    1.0700    1.9139 H         1 KNW1        0.0000
     55 H15        -0.1544   -5.0478    0.7356 H         1 KNW1        0.0000
     56 H16        -2.6028   -4.9485    0.9200 H         1 KNW1        0.0000
     57 H182       -4.3276   -0.8228    0.7632 H         1 KNW1        0.0000
     58 H183       -4.4762   -1.3335   -0.9355 H         1 KNW1        0.0000
     59 H192       -6.4424   -2.0006    1.3026 H         1 KNW1        0.0000
     60 H193       -6.5915   -2.5113   -0.3961 H         1 KNW1        0.0000
     61 H202       -6.5151    0.3739    0.5959 H         1 KNW1        0.0000
     62 H203       -6.6628   -0.1357   -1.1032 H         1 KNW1        0.0000
     63 H212       -8.6290   -0.8040    1.1333 H         1 KNW1        0.0000
     64 H213       -8.7771   -1.3140   -0.5656 H         1 KNW1        0.0000
     65 H23        -9.6382    0.1557   -2.1982 H         1 KNW1        0.0000
     66 H25       -10.7562    4.1227   -1.0877 H         1 KNW1        0.0000
     67 H26        -9.7041    3.8019    1.1146 H         1 KNW1        0.0000
     68 H28        -2.5407   -0.8533   -0.3158 H         1 KNW1        0.0000
     69 H29        -0.0923   -0.9398   -0.5027 H         1 KNW1        0.0000
@<TRIPOS>BOND
     1    6   36 2
     2    6   37 1
     3    4    6 1
     4    1   12 1
     5    1    3 1
     6    3    4 1
     7    8    9 2
     8    7    8 1
     9   12   14 1
    10    7   12 1
    11    5    9 1
    12   14   15 1
    13    7   32 2
    14   21   34 2
    15   15   21 1
    16   15   40 1
    17    5   10 2
    18   10   32 1
    19   32   40 1
    20   21   35 1
    21   10   13 1
    22   11   13 1
    23   11   38 2
    24    2   11 1
    25    2   16 2
    26    2   31 1
    27   16   17 1
    28   30   31 2
    29   17   18 2
    30   18   30 1
    31   18   39 1
    32   19   39 1
    33   19   20 1
    34   20   22 1
    35   22   23 1
    36   29   41 1
    37   23   24 1
    38   24   29 2
    39   28   29 1
    40   24   25 1
    41   27   28 2
    42   25   26 2
    43   26   27 1
    44   26   33 1
    45   42    1 1
    46   43    1 1
    47   44    3 1
    48   45    3 1
    49   46    4 1
    50   47    4 1
    51   48    5 1
    52   49    8 1
    53   50    9 1
    54   51   13 1
    55   52   14 1
    56   53   14 1
    57   54   15 1
    58   55   16 1
    59   56   17 1
    60   57   19 1
    61   58   19 1
    62   59   20 1
    63   60   20 1
    64   61   22 1
    65   62   22 1
    66   63   23 1
    67   64   23 1
    68   65   25 1
    69   66   27 1
    70   67   28 1
    71   68   30 1
    72   69   31 1
@<TRIPOS>SUBSTRUCTURE
     1 KNW1        1 RESIDUE           4 A     KNW     0 ROOT
