@<TRIPOS>MOLECULE
ADN
19 21 1 0 0
SMALL
NO_CHARGES


@<TRIPOS>ATOM
      1 O5'        94.9550  116.8340   91.9400 O.3       1 ADN419      0.0000
      2 C5'        93.5530  116.6510   91.8300 C.3       1 ADN419      0.0000
      3 C4'        92.8120  117.4240   92.8870 C.3       1 ADN419      0.0000
      4 O4'        93.1230  118.8260   92.7660 O.3       1 ADN419      0.0000
      5 C3'        91.2990  117.3750   92.7880 C.3       1 ADN419      0.0000
      6 O3'        90.7510  116.2060   93.3670 O.3       1 ADN419      0.0000
      7 C2'        90.8580  118.6570   93.4840 C.3       1 ADN419      0.0000
      8 O2'        90.7300  118.4570   94.8800 O.3       1 ADN419      0.0000
      9 C1'        92.0410  119.5950   93.2300 C.3       1 ADN419      0.0000
     10 N9         91.7240  120.6400   92.2430 N.ar      1 ADN419      0.0000
     11 C8         92.2260  120.7740   90.9760 C.ar      1 ADN419      0.0000
     12 N7         91.7860  121.8310   90.3370 N.ar      1 ADN419      0.0000
     13 C5         90.9280  122.4310   91.2450 C.ar      1 ADN419      0.0000
     14 C6         90.1230  123.5810   91.1750 C.ar      1 ADN419      0.0000
     15 N6         90.0710  124.3880   90.1120 N.pl3     1 ADN419      0.0000
     16 N1         89.3640  123.8830   92.2510 N.ar      1 ADN419      0.0000
     17 C2         89.4170  123.0870   93.3210 C.ar      1 ADN419      0.0000
     18 N3         90.1420  121.9820   93.5040 N.ar      1 ADN419      0.0000
     19 C4         90.8790  121.7050   92.4240 C.ar      1 ADN419      0.0000
@<TRIPOS>BOND
     1    1    2 1
     2    2    3 1
     3    3    4 1
     4    3    5 1
     5    4    9 1
     6    5    6 1
     7    5    7 1
     8    7    8 1
     9    7    9 1
    10    9   10 1
    11   10   11 ar
    12   10   19 ar
    13   11   12 ar
    14   12   13 ar
    15   13   14 ar
    16   13   19 ar
    17   14   15 1
    18   14   16 ar
    19   16   17 ar
    20   17   18 ar
    21   18   19 ar
@<TRIPOS>SUBSTRUCTURE
     1 ADN419      3 RESIDUE           4 R     ADN     0 ROOT
