@<TRIPOS>MOLECULE
ADN
19 21 1 0 0
SMALL
NO_CHARGES


@<TRIPOS>ATOM
      1 O5'        89.8350  112.7680  114.9490 O.3       1 ADN419      0.0000
      2 C5'        90.6520  113.8820  114.6310 C.3       1 ADN419      0.0000
      3 C4'        89.8600  114.9750  113.9650 C.3       1 ADN419      0.0000
      4 O4'        88.6740  115.2310  114.7370 O.3       1 ADN419      0.0000
      5 C3'        90.5600  116.3200  113.8870 C.3       1 ADN419      0.0000
      6 O3'        91.3820  116.4390  112.7420 O.3       1 ADN419      0.0000
      7 C2'        89.4250  117.3420  113.9250 C.3       1 ADN419      0.0000
      8 O2'        89.0190  117.7020  112.6160 O.3       1 ADN419      0.0000
      9 C1'        88.2890  116.5750  114.6030 C.3       1 ADN419      0.0000
     10 N9         87.9520  117.1060  115.9340 N.ar      1 ADN419      0.0000
     11 C8         88.0790  116.4610  117.1350 C.ar      1 ADN419      0.0000
     12 N7         87.6310  117.1440  118.1610 N.ar      1 ADN419      0.0000
     13 C5         87.1820  118.3270  117.5930 C.ar      1 ADN419      0.0000
     14 C6         86.5770  119.4720  118.1430 C.ar      1 ADN419      0.0000
     15 N6         86.3060  119.6180  119.4430 N.pl3     1 ADN419      0.0000
     16 N1         86.2550  120.4770  117.3000 N.ar      1 ADN419      0.0000
     17 C2         86.5110  120.3330  115.9980 C.ar      1 ADN419      0.0000
     18 N3         87.0700  119.2990  115.3670 N.ar      1 ADN419      0.0000
     19 C4         87.3770  118.3210  116.2250 C.ar      1 ADN419      0.0000
@<TRIPOS>BOND
     1    1    2 1
     2    2    3 1
     3    3    4 1
     4    3    5 1
     5    4    9 1
     6    5    6 1
     7    5    7 1
     8    7    8 1
     9    7    9 1
    10    9   10 1
    11   10   11 ar
    12   10   19 ar
    13   11   12 ar
    14   12   13 ar
    15   13   14 ar
    16   13   19 ar
    17   14   15 1
    18   14   16 ar
    19   16   17 ar
    20   17   18 ar
    21   18   19 ar
@<TRIPOS>SUBSTRUCTURE
     1 ADN419      3 RESIDUE           4 R     ADN     0 ROOT
