@<TRIPOS>MOLECULE
ADN
19 21 1 0 0
SMALL
NO_CHARGES


@<TRIPOS>ATOM
      1 O5'        85.4390   74.8510   81.5140 O.3       1 ADN419      0.0000
      2 C5'        86.7280   74.7610   80.9260 C.3       1 ADN419      0.0000
      3 C4'        87.5320   73.6380   81.5200 C.3       1 ADN419      0.0000
      4 O4'        86.8860   72.4040   81.1780 O.3       1 ADN419      0.0000
      5 C3'        88.9470   73.5670   80.9760 C.3       1 ADN419      0.0000
      6 O3'        89.8680   73.9530   81.9910 O.3       1 ADN419      0.0000
      7 C2'        89.1770   72.0990   80.6170 C.3       1 ADN419      0.0000
      8 O2'        90.1810   71.4730   81.3830 O.3       1 ADN419      0.0000
      9 C1'        87.8260   71.4190   80.8230 C.3       1 ADN419      0.0000
     10 N9         87.3150   70.7570   79.6270 N.ar      1 ADN419      0.0000
     11 C8         86.4340   71.2800   78.7200 C.ar      1 ADN419      0.0000
     12 N7         86.1570   70.4790   77.7210 N.ar      1 ADN419      0.0000
     13 C5         86.9180   69.3520   77.9830 C.ar      1 ADN419      0.0000
     14 C6         87.1150   68.1560   77.2730 C.ar      1 ADN419      0.0000
     15 N6         86.4630   67.8460   76.1530 N.pl3     1 ADN419      0.0000
     16 N1         87.9970   67.2670   77.7740 N.ar      1 ADN419      0.0000
     17 C2         88.6270   67.5580   78.9130 C.ar      1 ADN419      0.0000
     18 N3         88.5170   68.6480   79.6730 N.ar      1 ADN419      0.0000
     19 C4         87.6430   69.5110   79.1510 C.ar      1 ADN419      0.0000
@<TRIPOS>BOND
     1    1    2 1
     2    2    3 1
     3    3    4 1
     4    3    5 1
     5    4    9 1
     6    5    6 1
     7    5    7 1
     8    7    8 1
     9    7    9 1
    10    9   10 1
    11   10   11 ar
    12   10   19 ar
    13   11   12 ar
    14   12   13 ar
    15   13   14 ar
    16   13   19 ar
    17   14   15 1
    18   14   16 ar
    19   16   17 ar
    20   17   18 ar
    21   18   19 ar
@<TRIPOS>SUBSTRUCTURE
     1 ADN419      3 RESIDUE           4 R     ADN     0 ROOT
