# created with PyMOL 2.3.5
@<TRIPOS>MOLECULE
ADN
32 34 1                 
SMALL
USER_CHARGES
@<TRIPOS>ATOM
1	 O5'	-2.224	0.992	-4.318	O.3	1	ADN0	0.000	
2	 C5'	-1.228	-0.026	-4.200	C.3	1	ADN0	0.000	
3	 C4'	-0.217	0.372	-3.123	C.3	1	ADN0	0.000	
4	 O4'	-0.871	0.501	-1.842	O.3	1	ADN0	0.000	
5	 C3'	0.826	-0.748	-2.921	C.3	1	ADN0	0.000	
6	 O3'	2.023	-0.455	-3.645	O.3	1	ADN0	0.000	
7	 C2'	1.097	-0.740	-1.398	C.3	1	ADN0	0.000	
8	 O2'	2.470	-0.444	-1.136	O.3	1	ADN0	0.000	
9	 C1'	0.182	0.382	-0.862	C.3	1	ADN0	0.000	
10	  N9	-0.372	0.009	0.440	N.pl3	1	ADN0	0.000	
11	  C8	-1.525	-0.685	0.657	C.2	1	ADN0	0.000	
12	  N7	-1.717	-0.841	1.935	N.2	1	ADN0	0.000	
13	  C5	-0.699	-0.262	2.617	C.2	1	ADN0	0.000	
14	  C6	-0.383	-0.109	3.978	C.2	1	ADN0	0.000	
15	  N6	-1.206	-0.632	4.959	N.pl3	1	ADN0	0.000	
16	  N1	0.728	0.543	4.300	N.2	1	ADN0	0.000	
17	  C2	1.520	1.045	3.370	C.2	1	ADN0	0.000	
18	  N3	1.261	0.932	2.084	N.2	1	ADN0	0.000	
19	  C4	0.172	0.295	1.667	C.2	1	ADN0	0.000	
20	HO5'	-2.839	0.702	-5.006	 H	1	ADN0	0.000	
21	H5'1	-0.714	-0.145	-5.154	 H	1	ADN0	0.000	
22	H5'2	-1.702	-0.967	-3.923	 H	1	ADN0	0.000	
23	 H4'	0.276	1.305	-3.393	 H	1	ADN0	0.000	
24	 H3'	0.419	-1.710	-3.233	 H	1	ADN0	0.000	
25	HO3'	1.780	-0.413	-4.580	 H	1	ADN0	0.000	
26	 H2'	0.823	-1.698	-0.956	 H	1	ADN0	0.000	
27	HO2'	2.992	-1.147	-1.546	 H	1	ADN0	0.000	
28	 H1'	0.735	1.318	-0.784	 H	1	ADN0	0.000	
29	  H8	-2.182	-1.052	-0.116	 H	1	ADN0	0.000	
30	HN61	-0.975	-0.523	5.895	 H	1	ADN0	0.000	
31	HN62	-2.017	-1.104	4.712	 H	1	ADN0	0.000	
32	  H2	2.413	1.569	3.676	 H	1	ADN0	0.000	
@<TRIPOS>BOND
1 1 2 1
2 1 20 1
3 2 3 1
4 2 21 1
5 2 22 1
6 3 4 1
7 3 5 1
8 3 23 1
9 4 9 1
10 5 6 1
11 5 7 1
12 5 24 1
13 6 25 1
14 7 8 1
15 7 9 1
16 7 26 1
17 8 27 1
18 9 10 1
19 9 28 1
20 10 11 1
21 10 19 1
22 11 12 2
23 11 29 1
24 12 13 1
25 13 14 1
26 13 19 2
27 14 15 1
28 14 16 2
29 15 30 1
30 15 31 1
31 16 17 1
32 17 18 2
33 17 32 1
34 18 19 1
@<TRIPOS>SUBSTRUCTURE
1	ADN0	1	GROUP	1 ****	ADN
