@<TRIPOS>MOLECULE
UK1
65 75 1 0 0
SMALL
NO_CHARGES


@<TRIPOS>ATOM
      1 C01       128.0890  105.0700   88.4340 C.ar      1 UK1536      0.0000
      2 C02       129.3300  105.6710   87.9340 C.ar      1 UK1536      0.0000
      3 C03       129.3780  106.4200   86.7070 C.ar      1 UK1536      0.0000
      4 C04       128.1420  106.5880   85.9720 C.ar      1 UK1536      0.0000
      5 C05       126.8810  106.0190   86.4100 C.ar      1 UK1536      0.0000
      6 C06       126.8800  105.2600   87.6520 C.ar      1 UK1536      0.0000
      7 C08       128.0920  104.2150   89.8290 C.3       1 UK1536      0.0000
      8 C09       125.5260  106.2400   85.5220 C.3       1 UK1536      0.0000
      9 C12       133.0000  107.4200   85.4170 C.2       1 UK1536      0.0000
     10 C13       132.3290  108.6760   85.2470 C.2       1 UK1536      0.0000
     11 C14       130.9620  108.5180   85.6990 C.2       1 UK1536      0.0000
     12 C16       134.4960  107.2550   85.0340 C.3       1 UK1536      0.0000
     13 C17       135.0740  108.5160   84.1760 C.3       1 UK1536      0.0000
     14 C19       133.0940  109.8930   84.7130 C.3       1 UK1536      0.0000
     15 C20       132.5910  110.1140   83.2650 C.3       1 UK1536      0.0000
     16 C21       135.4420  110.8610   85.2830 C.2       1 UK1536      0.0000
     17 C23       134.8840  112.2130   85.9100 C.ar      1 UK1536      0.0000
     18 C25       134.1880  113.8940   87.4440 C.ar      1 UK1536      0.0000
     19 C26       133.9070  114.3630   86.1550 C.ar      1 UK1536      0.0000
     20 C27       134.3450  113.2870   85.1950 C.ar      1 UK1536      0.0000
     21 C28       135.3040  111.5050   88.3500 C.3       1 UK1536      0.0000
     22 C29       133.8290  114.8140   88.5970 C.ar      1 UK1536      0.0000
     23 C30       133.2570  116.0490   88.4040 C.ar      1 UK1536      0.0000
     24 C31       132.9540  116.5730   87.0080 C.ar      1 UK1536      0.0000
     25 C32       133.2700  115.7380   85.9610 C.ar      1 UK1536      0.0000
     26 C34       131.3410  118.1660   85.5570 C.3       1 UK1536      0.0000
     27 C35       130.7280  119.6130   85.4160 C.3       1 UK1536      0.0000
     28 C37       131.1940  120.1870   87.6520 C.3       1 UK1536      0.0000
     29 C38       131.4920  118.6440   87.8720 C.3       1 UK1536      0.0000
     30 C39       129.7690  120.5460   88.1130 C.3       1 UK1536      0.0000
     31 C40       132.2600  120.9940   88.4810 C.3       1 UK1536      0.0000
     32 C41       129.3670  110.4360   86.7610 C.2       1 UK1536      0.0000
     33 C42       128.1730  111.0710   86.3770 C.2       1 UK1536      0.0000
     34 C44       128.7210  109.5840   84.7660 C.2       1 UK1536      0.0000
     35 C46       126.4240  110.8450   84.1240 C.ar      1 UK1536      0.0000
     36 C47       126.4020  111.4350   82.8760 C.ar      1 UK1536      0.0000
     37 C48       125.1680  111.6700   82.0050 C.ar      1 UK1536      0.0000
     38 C49       123.9300  111.2190   82.5100 C.ar      1 UK1536      0.0000
     39 C50       123.8830  110.5470   83.8480 C.ar      1 UK1536      0.0000
     40 C51       125.0340  110.3620   84.5970 C.ar      1 UK1536      0.0000
     41 C52       124.8600  112.2810   80.6700 C.ar      1 UK1536      0.0000
     42 C56       121.4060  111.2630   81.5930 C.3       1 UK1536      0.0000
     43 C57       135.9950  112.3770   89.4920 C.3       1 UK1536      0.0000
     44 C58       136.0890  110.9820   89.8150 C.3       1 UK1536      0.0000
     45 C59       137.3000  110.1290   89.8340 C.3       1 UK1536      0.0000
     46 C60       134.3000  110.2010   88.6550 C.2       1 UK1536      0.0000
     47 C63       132.3760  109.0390   89.0560 C.2       1 UK1536      0.0000
     48 F10       125.7160  104.7130   88.0880 F         1 UK1536      0.0000
     49 F55       127.5570  111.8920   82.3310 F         1 UK1536      0.0000
     50 N07       130.8170  107.1490   86.1050 N.pl3     1 UK1536      0.0000
     51 N11       132.0910  106.4930   85.9290 N.2       1 UK1536      0.0000
     52 N15       129.7780  109.4590   85.7310 N.am      1 UK1536      0.0000
     53 N18       134.6320  109.8240   84.7340 N.am      1 UK1536      0.0000
     54 N24       134.8210  112.5200   87.3390 N.ar      1 UK1536      0.0000
     55 N33       132.2780  118.0070   86.7590 N.3       1 UK1536      0.0000
     56 N43       127.7180  110.5420   85.0640 N.am      1 UK1536      0.0000
     57 N53       123.5040  112.1830   80.4240 N.ar      1 UK1536      0.0000
     58 N54       122.9110  111.5450   81.5210 N.ar      1 UK1536      0.0000
     59 N61       134.5600  108.8900   88.7210 N.2       1 UK1536      0.0000
     60 N64       132.8860  110.3310   88.8500 N.am      1 UK1536      0.0000
     61 O22       136.6850  110.7450   85.3010 O.2       1 UK1536      0.0000
     62 O36       131.3620  120.5150   86.2890 O.3       1 UK1536      0.0000
     63 O45       128.7010  108.9090   83.7430 O.2       1 UK1536      0.0000
     64 O62       133.4260  108.1980   88.9700 O.3       1 UK1536      0.0000
     65 O65       131.2130  108.7230   89.2710 O.2       1 UK1536      0.0000
@<TRIPOS>BOND
     1    1    2 ar
     2    1    6 ar
     3    1    7 1
     4    2    3 ar
     5    3    4 ar
     6    3   50 1
     7    4    5 ar
     8    5    6 ar
     9    5    8 1
    10    6   48 1
    11    9   10 2
    12    9   12 1
    13    9   51 2
    14   10   11 2
    15   10   14 1
    16   11   50 2
    17   11   52 1
    18   12   13 1
    19   13   53 1
    20   14   15 1
    21   14   53 1
    22   16   17 1
    23   16   53 am
    24   16   61 2
    25   17   20 ar
    26   17   54 ar
    27   18   19 ar
    28   18   22 ar
    29   18   54 ar
    30   19   20 ar
    31   19   25 ar
    32   21   43 1
    33   21   44 1
    34   21   46 1
    35   21   54 1
    36   22   23 ar
    37   23   24 ar
    38   24   25 ar
    39   24   55 1
    40   26   27 1
    41   26   55 1
    42   27   62 1
    43   28   29 1
    44   28   30 1
    45   28   31 1
    46   28   62 1
    47   29   55 1
    48   32   33 2
    49   32   52 1
    50   33   56 1
    51   34   52 am
    52   34   56 am
    53   34   63 2
    54   35   36 ar
    55   35   40 ar
    56   35   56 1
    57   36   37 ar
    58   36   49 1
    59   37   38 ar
    60   37   41 ar
    61   38   39 ar
    62   38   58 ar
    63   39   40 ar
    64   41   57 ar
    65   42   58 1
    66   43   44 1
    67   44   45 1
    68   46   59 2
    69   46   60 1
    70   47   60 am
    71   47   64 1
    72   47   65 2
    73   50   51 2
    74   57   58 ar
    75   59   64 1
@<TRIPOS>SUBSTRUCTURE
     1 UK1536      1 RESIDUE           4 R     UK1     0 ROOT
