# created with PyMOL 2.3.5
@<TRIPOS>MOLECULE
PGO
13 12 1                 
SMALL
USER_CHARGES
@<TRIPOS>ATOM
1	  C1	0.909	-0.145	-0.704	C.3	1	PGO0	0.000	
2	  C2	-0.600	-0.010	-0.494	C.3	1	PGO0	0.000	
3	  C3	-0.901	1.320	0.199	C.3	1	PGO0	0.000	
4	  O1	1.581	0.010	0.548	O.3	1	PGO0	0.000	
5	  O2	-1.066	-1.088	0.321	O.3	1	PGO0	0.000	
6	 H11	1.132	-1.130	-1.116	 H	1	PGO0	0.000	
7	 H12	1.250	0.624	-1.397	 H	1	PGO0	0.000	
8	  H2	-1.106	-0.040	-1.459	 H	1	PGO0	0.000	
9	 H31	-0.546	2.142	-0.423	 H	1	PGO0	0.000	
10	 H32	-1.977	1.416	0.349	 H	1	PGO0	0.000	
11	 H33	-0.396	1.350	1.164	 H	1	PGO0	0.000	
12	 HO1	2.543	-0.064	0.490	 H	1	PGO0	0.000	
13	 HO2	-2.017	-1.066	0.496	 H	1	PGO0	0.000	
@<TRIPOS>BOND
1 1 2 1
2 1 4 1
3 1 6 1
4 1 7 1
5 2 3 1
6 2 5 1
7 2 8 1
8 3 9 1
9 3 10 1
10 3 11 1
11 4 12 1
12 5 13 1
@<TRIPOS>SUBSTRUCTURE
1	PGO0	1	GROUP	1 ****	PGO
