@<TRIPOS>MOLECULE
VFP
27 30 1 0 0
SMALL
NO_CHARGES


@<TRIPOS>ATOM
      1 C5        -15.1790  -78.2060  -42.6690 C.ar      1 VFP451      0.0000
      2 C6        -14.2250  -76.2460  -42.9950 C.ar      1 VFP451      0.0000
      3 N1        -14.4030  -80.8160  -43.0840 N.ar      1 VFP451      0.0000
      4 C2        -13.5410  -79.8110  -43.4070 C.ar      1 VFP451      0.0000
      5 N3         -9.0860  -87.8120  -44.8450 N.am      1 VFP451      0.0000
      6 C4        -16.0610  -79.2310  -42.3370 C.ar      1 VFP451      0.0000
      7 C1        -13.8990  -78.4560  -43.2110 C.ar      1 VFP451      0.0000
      8 C10       -11.8740  -83.5620  -45.1630 C.ar      1 VFP451      0.0000
      9 C11       -10.7260  -83.9490  -44.4280 C.ar      1 VFP451      0.0000
     10 C12       -10.1160  -83.0410  -43.5390 C.ar      1 VFP451      0.0000
     11 C13       -10.6470  -81.7470  -43.3770 C.ar      1 VFP451      0.0000
     12 C14       -12.5460  -84.5240  -46.1280 C.3       1 VFP451      0.0000
     13 C15       -10.0290  -87.6180  -43.8550 C.2       1 VFP451      0.0000
     14 C16        -8.6210  -86.8450  -45.7220 C.2       1 VFP451      0.0000
     15 C17        -9.2070  -85.5130  -45.5550 C.2       1 VFP451      0.0000
     16 C18       -10.1440  -85.2980  -44.5820 C.2       1 VFP451      0.0000
     17 C19        -8.7050  -84.4380  -46.5160 C.3       1 VFP451      0.0000
     18 C20       -11.5530  -86.1870  -42.6740 C.3       1 VFP451      0.0000
     19 C3        -15.6200  -80.5380  -42.5680 C.ar      1 VFP451      0.0000
     20 C7        -13.2970  -77.1680  -43.4170 C.ar      1 VFP451      0.0000
     21 C8        -11.7930  -81.3560  -44.0980 C.ar      1 VFP451      0.0000
     22 C9        -12.3980  -82.2630  -44.9950 C.ar      1 VFP451      0.0000
     23 N2        -10.5700  -86.3220  -43.7270 N.am      1 VFP451      0.0000
     24 O1        -15.3710  -76.8460  -42.5400 O.2       1 VFP451      0.0000
     25 O2        -12.2960  -80.0880  -43.9380 O.3       1 VFP451      0.0000
     26 O3         -7.7720  -87.1550  -46.5600 O.2       1 VFP451      0.0000
     27 O4        -10.3600  -88.5620  -43.1360 O.2       1 VFP451      0.0000
@<TRIPOS>BOND
     1    1    6 ar
     2    1    7 ar
     3    1   24 ar
     4    2   20 ar
     5    2   24 ar
     6    3    4 ar
     7    3   19 ar
     8    4    7 ar
     9    4   25 1
    10    5   13 am
    11    5   14 am
    12    6   19 ar
    13    7   20 ar
    14    8    9 ar
    15    8   12 1
    16    8   22 ar
    17    9   10 ar
    18    9   16 1
    19   10   11 ar
    20   11   21 ar
    21   13   23 am
    22   13   27 2
    23   14   15 1
    24   14   26 2
    25   15   16 2
    26   15   17 1
    27   16   23 1
    28   18   23 1
    29   21   22 ar
    30   21   25 1
@<TRIPOS>SUBSTRUCTURE
     1 VFP451      1 RESIDUE           4 R     VFP     0 ROOT
