# created with PyMOL 2.3.5
@<TRIPOS>MOLECULE
NAG
30 30 1                 
SMALL
USER_CHARGES
@<TRIPOS>ATOM
1	  C1	0.185	1.082	-0.421	C.3	1	NAG0	0.000	
2	  C2	0.790	-0.220	0.112	C.3	1	NAG0	0.000	
3	  C3	-0.124	-1.390	-0.265	C.3	1	NAG0	0.000	
4	  C4	-1.526	-1.129	0.294	C.3	1	NAG0	0.000	
5	  C5	-2.042	0.207	-0.246	C.3	1	NAG0	0.000	
6	  C6	-3.417	0.504	0.355	C.3	1	NAG0	0.000	
7	  C7	3.197	0.157	0.076	C.2	1	NAG0	0.000	
8	  C8	4.559	-0.052	-0.533	C.3	1	NAG0	0.000	
9	  N2	2.114	-0.422	-0.480	N.pl3	1	NAG0	0.000	
10	  O1	1.003	2.185	-0.024	O.3	1	NAG0	0.000	
11	  O3	0.395	-2.600	0.291	O.3	1	NAG0	0.000	
12	  O4	-2.405	-2.180	-0.114	O.3	1	NAG0	0.000	
13	  O5	-1.130	1.248	0.113	O.3	1	NAG0	0.000	
14	  O6	-3.949	1.691	-0.236	O.3	1	NAG0	0.000	
15	  O7	3.074	0.845	1.067	O.2	1	NAG0	0.000	
16	  H1	0.133	1.040	-1.509	 H	1	NAG0	0.000	
17	  H2	0.879	-0.163	1.197	 H	1	NAG0	0.000	
18	  H3	-0.174	-1.478	-1.350	 H	1	NAG0	0.000	
19	  H4	-1.483	-1.091	1.382	 H	1	NAG0	0.000	
20	  H5	-2.123	0.154	-1.332	 H	1	NAG0	0.000	
21	 H61	-4.088	-0.333	0.157	 H	1	NAG0	0.000	
22	 H62	-3.320	0.645	1.431	 H	1	NAG0	0.000	
23	 H81	4.560	0.320	-1.558	 H	1	NAG0	0.000	
24	 H82	5.305	0.490	0.050	 H	1	NAG0	0.000	
25	 H83	4.799	-1.115	-0.532	 H	1	NAG0	0.000	
26	 HN2	2.212	-0.973	-1.273	 H	1	NAG0	0.000	
27	 HO1	0.679	3.044	-0.328	 H	1	NAG0	0.000	
28	 HO3	-0.135	-3.384	0.091	 H	1	NAG0	0.000	
29	 HO4	-3.312	-2.079	0.206	 H	1	NAG0	0.000	
30	 HO6	-4.822	1.940	0.099	 H	1	NAG0	0.000	
@<TRIPOS>BOND
1 1 2 1
2 1 10 1
3 1 13 1
4 1 16 1
5 2 3 1
6 2 9 1
7 2 17 1
8 3 4 1
9 3 11 1
10 3 18 1
11 4 5 1
12 4 12 1
13 4 19 1
14 5 6 1
15 5 13 1
16 5 20 1
17 6 14 1
18 6 21 1
19 6 22 1
20 7 8 1
21 7 9 1
22 7 15 2
23 8 23 1
24 8 24 1
25 8 25 1
26 9 26 1
27 10 27 1
28 11 28 1
29 12 29 1
30 14 30 1
@<TRIPOS>SUBSTRUCTURE
1	NAG0	1	GROUP	1 ****	NAG
