# created with PyMOL 2.3.5
@<TRIPOS>MOLECULE
ALC
29 29 1                 
SMALL
USER_CHARGES
@<TRIPOS>ATOM
1	   N	0.018	1.763	1.424	N.3	1	ALC0	0.000	
2	  CA	-0.305	0.331	1.460	C.3	1	ALC0	0.000	
3	   C	-0.081	-0.199	2.853	C.2	1	ALC0	0.000	
4	   O	0.762	0.297	3.560	O.co2	1	ALC0	0.000	
5	  CB	0.595	-0.419	0.477	C.3	1	ALC0	0.000	
6	  CG	0.368	0.118	-0.936	C.3	1	ALC0	0.000	
7	 CD2	1.269	-0.632	-1.918	C.3	1	ALC0	0.000	
8	 CE2	1.042	-0.093	-3.332	C.3	1	ALC0	0.000	
9	  CZ	-0.422	-0.295	-3.726	C.3	1	ALC0	0.000	
10	 CE1	-1.322	0.455	-2.743	C.3	1	ALC0	0.000	
11	 CD1	-1.095	-0.083	-1.329	C.3	1	ALC0	0.000	
12	 OXT	-0.819	-1.224	3.307	O.3	1	ALC0	0.000	
13	   H	0.988	1.848	1.689	 H	1	ALC0	0.000	
14	  H2	-0.044	2.050	0.459	 H	1	ALC0	0.000	
15	  HA	-1.348	0.186	1.180	 H	1	ALC0	0.000	
16	 HB2	1.639	-0.275	0.758	 H	1	ALC0	0.000	
17	 HB3	0.356	-1.482	0.504	 H	1	ALC0	0.000	
18	  HG	0.608	1.181	-0.962	 H	1	ALC0	0.000	
19	HD23	2.312	-0.487	-1.638	 H	1	ALC0	0.000	
20	HD22	1.029	-1.695	-1.892	 H	1	ALC0	0.000	
21	HE23	1.282	0.969	-3.359	 H	1	ALC0	0.000	
22	HE22	1.684	-0.628	-4.032	 H	1	ALC0	0.000	
23	 HZ3	-0.583	0.088	-4.733	 H	1	ALC0	0.000	
24	 HZ2	-0.661	-1.358	-3.699	 H	1	ALC0	0.000	
25	HE13	-1.083	1.518	-2.770	 H	1	ALC0	0.000	
26	HE12	-2.366	0.311	-3.024	 H	1	ALC0	0.000	
27	HD12	-1.335	-1.146	-1.303	 H	1	ALC0	0.000	
28	HD13	-1.737	0.451	-0.629	 H	1	ALC0	0.000	
29	 HXT	-0.676	-1.564	4.201	 H	1	ALC0	0.000	
@<TRIPOS>BOND
1 1 2 1
2 1 13 1
3 1 14 1
4 2 3 1
5 2 5 1
6 2 15 1
7 3 4 2
8 3 12 1
9 5 6 1
10 5 16 1
11 5 17 1
12 6 7 1
13 6 11 1
14 6 18 1
15 7 8 1
16 7 19 1
17 7 20 1
18 8 9 1
19 8 21 1
20 8 22 1
21 9 10 1
22 9 23 1
23 9 24 1
24 10 11 1
25 10 25 1
26 10 26 1
27 11 27 1
28 11 28 1
29 12 29 1
@<TRIPOS>SUBSTRUCTURE
1	ALC0	1	GROUP	1 ****	ALC
