@<TRIPOS>MOLECULE
XTD
29 31 1 0 0
SMALL
NO_CHARGES


@<TRIPOS>ATOM
      1 C1        102.5680  121.8900  112.0390 C.ar      1 XTD420      0.0000
      2 C2        103.2500  121.2660  111.0010 C.ar      1 XTD420      0.0000
      3 C3        103.6100  121.9700  109.8660 C.ar      1 XTD420      0.0000
      4 C4        103.2800  123.3030  109.7710 C.ar      1 XTD420      0.0000
      5 C5        102.6080  123.9490  110.7860 C.ar      1 XTD420      0.0000
      6 C6        102.2510  123.2380  111.9170 C.ar      1 XTD420      0.0000
      7 C7        103.2150  120.4620  114.0890 C.ar      1 XTD420      0.0000
      8 C9        105.1850  120.0680  115.2390 C.ar      1 XTD420      0.0000
      9 C8        102.9500  119.2160  114.6390 C.ar      1 XTD420      0.0000
     10 C10       104.5230  120.9540  114.4430 C.ar      1 XTD420      0.0000
     11 C11       105.1420  122.2440  114.0560 C.ar      1 XTD420      0.0000
     12 C12       104.7390  123.4260  114.6690 C.ar      1 XTD420      0.0000
     13 N         101.8410  118.4720  114.5330 N.pl3     1 XTD420      0.0000
     14 C         102.1840  121.1340  113.2610 C.2       1 XTD420      0.0000
     15 O         101.0080  121.0630  113.5910 O.2       1 XTD420      0.0000
     16 C13       105.2600  124.6450  114.2540 C.ar      1 XTD420      0.0000
     17 C14       104.7770  125.9130  114.8800 C.3       1 XTD420      0.0000
     18 C15       106.2030  124.6890  113.2330 C.ar      1 XTD420      0.0000
     19 C16       106.6110  123.5090  112.6220 C.ar      1 XTD420      0.0000
     20 C17       107.5890  123.5530  111.4940 C.3       1 XTD420      0.0000
     21 C18       106.0890  122.2910  113.0390 C.ar      1 XTD420      0.0000
     22 F         105.2850  126.1130  116.0930 F         1 XTD420      0.0000
     23 F1        105.0910  126.9890  114.1650 F         1 XTD420      0.0000
     24 F2        103.4550  125.9400  115.0240 F         1 XTD420      0.0000
     25 F3        107.5330  122.4700  110.7260 F         1 XTD420      0.0000
     26 F4        108.8460  123.6440  111.9090 F         1 XTD420      0.0000
     27 F5        107.3900  124.5880  110.6850 F         1 XTD420      0.0000
     28 S         104.2920  118.6460  115.5890 S.2       1 XTD420      0.0000
     29 CL        103.7160  124.1900  108.3370 Cl        1 XTD420      0.0000
@<TRIPOS>BOND
     1    1    2 ar
     2    1    6 ar
     3    1   14 1
     4    2    3 ar
     5    3    4 ar
     6    4    5 ar
     7    4   29 1
     8    5    6 ar
     9    7    9 ar
    10    7   10 ar
    11    7   14 1
    12    8   10 ar
    13    8   28 ar
    14    9   13 1
    15    9   28 ar
    16   10   11 1
    17   11   12 ar
    18   11   21 ar
    19   12   16 ar
    20   14   15 2
    21   16   17 1
    22   16   18 ar
    23   17   22 1
    24   17   23 1
    25   17   24 1
    26   18   19 ar
    27   19   20 1
    28   19   21 ar
    29   20   25 1
    30   20   26 1
    31   20   27 1
@<TRIPOS>SUBSTRUCTURE
     1 XTD420      1 RESIDUE           4 R     XTD     0 ROOT
