# created with PyMOL 2.3.5
@<TRIPOS>MOLECULE
A8T
62 66 1 0 0
SMALL
USER_CHARGES


@<TRIPOS>ATOM
      1 C12         8.8210    0.8930   -0.7540 C.3       1 A8T1        0.0000
      2 C11         8.0780    0.2510    0.4200 C.3       1 A8T1        0.0000
      3 C13         8.4790   -1.2210    0.5320 C.3       1 A8T1        0.0000
      4 O1          8.4190    0.9310    1.6290 O.3       1 A8T1        0.0000
      5 C2          6.5930    0.3510    0.1890 C.2       1 A8T1        0.0000
      6 C3          5.9220   -0.6530   -0.4810 C.2       1 A8T1        0.0000
      7 N1          4.6210   -0.5760   -0.6890 N.2       1 A8T1        0.0000
      8 C1          5.8830    1.4500    0.6540 C.2       1 A8T1        0.0000
      9 C5          4.5200    1.5020    0.4220 C.2       1 A8T1        0.0000
     10 C4          3.9100    0.4580   -0.2660 C.2       1 A8T1        0.0000
     11 N2          2.5420    0.4980   -0.5060 N.pl3     1 A8T1        0.0000
     12 C9          2.1020   -0.6960   -1.2420 C.3       1 A8T1        0.0000
     13 C8          0.6080   -0.5760   -1.5560 C.3       1 A8T1        0.0000
     14 C6          1.7910    0.6460    0.7480 C.3       1 A8T1        0.0000
     15 C7          0.2980    0.7660    0.4340 C.3       1 A8T1        0.0000
     16 N3         -0.1430   -0.4280   -0.3020 N.pl3     1 A8T1        0.0000
     17 C10        -1.5060   -0.3880   -0.5420 C.2       1 A8T1        0.0000
     18 N5         -2.0330    0.5760   -1.2760 N.2       1 A8T1        0.0000
     19 N4         -3.2860    0.6610   -1.5300 N.2       1 A8T1        0.0000
     20 C14        -2.3600   -1.3810   -0.0100 C.2       1 A8T1        0.0000
     21 C17        -1.8930   -2.4410    0.7730 C.2       1 A8T1        0.0000
     22 C18        -2.7780   -3.3620    1.2520 C.2       1 A8T1        0.0000
     23 C19        -4.1390   -3.2630    0.9710 C.2       1 A8T1        0.0000
     24 C20        -4.6280   -2.2430    0.2110 C.2       1 A8T1        0.0000
     25 C15        -3.7470   -1.2790   -0.2960 C.2       1 A8T1        0.0000
     26 C16        -4.1750   -0.1980   -1.0880 C.2       1 A8T1        0.0000
     27 C21        -5.6330   -0.0310   -1.4290 C.3       1 A8T1        0.0000
     28 C22        -6.3030    0.8090   -0.3730 C.2       1 A8T1        0.0000
     29 C23        -6.3520    2.1830   -0.5110 C.2       1 A8T1        0.0000
     30 C24        -6.9660    2.9540    0.4590 C.2       1 A8T1        0.0000
     31 C25        -7.5320    2.3500    1.5660 C.2       1 A8T1        0.0000
     32 C26        -7.4830    0.9750    1.7040 C.2       1 A8T1        0.0000
     33 C27        -6.8740    0.2040    0.7320 C.2       1 A8T1        0.0000
     34 H1          8.5610    0.3740   -1.6760 H         1 A8T1        0.0000
     35 H2          8.5350    1.9420   -0.8340 H         1 A8T1        0.0000
     36 H3          9.8960    0.8210   -0.5870 H         1 A8T1        0.0000
     37 H4          7.9510   -1.6790    1.3680 H         1 A8T1        0.0000
     38 H5          8.2190   -1.7400   -0.3900 H         1 A8T1        0.0000
     39 H6          9.5540   -1.2930    0.6990 H         1 A8T1        0.0000
     40 H7          7.9840    0.5760    2.4160 H         1 A8T1        0.0000
     41 H8          6.4700   -1.5120   -0.8410 H         1 A8T1        0.0000
     42 H9          6.3830    2.2460    1.1850 H         1 A8T1        0.0000
     43 H10         3.9380    2.3420    0.7690 H         1 A8T1        0.0000
     44 H11         2.6640   -0.7770   -2.1730 H         1 A8T1        0.0000
     45 H12         2.2760   -1.5830   -0.6330 H         1 A8T1        0.0000
     46 H13         0.4380    0.2960   -2.1880 H         1 A8T1        0.0000
     47 H14         0.2730   -1.4730   -2.0770 H         1 A8T1        0.0000
     48 H15         1.9610   -0.2260    1.3790 H         1 A8T1        0.0000
     49 H16         2.1260    1.5430    1.2690 H         1 A8T1        0.0000
     50 H17        -0.2640    0.8470    1.3650 H         1 A8T1        0.0000
     51 H18         0.1240    1.6530   -0.1740 H         1 A8T1        0.0000
     52 H19        -0.8400   -2.5300    0.9980 H         1 A8T1        0.0000
     53 H20        -2.4190   -4.1810    1.8570 H         1 A8T1        0.0000
     54 H21        -4.8180   -4.0060    1.3630 H         1 A8T1        0.0000
     55 H22        -5.6860   -2.1780    0.0010 H         1 A8T1        0.0000
     56 H23        -5.7260    0.4610   -2.3980 H         1 A8T1        0.0000
     57 H24        -6.1100   -1.0100   -1.4720 H         1 A8T1        0.0000
     58 H25        -5.9100    2.6550   -1.3750 H         1 A8T1        0.0000
     59 H26        -7.0040    4.0280    0.3510 H         1 A8T1        0.0000
     60 H27        -8.0120    2.9520    2.3240 H         1 A8T1        0.0000
     61 H28        -7.9250    0.5030    2.5690 H         1 A8T1        0.0000
     62 H29        -6.8360   -0.8700    0.8390 H         1 A8T1        0.0000
@<TRIPOS>BOND
     1   31   32 2
     2   32   33 1
     3   30   31 1
     4   28   33 2
     5   29   30 2
     6   28   29 1
     7   27   28 1
     8   26   27 1
     9   23   24 2
    10   24   25 1
    11   25   26 2
    12   19   26 1
    13   22   23 1
    14   20   25 1
    15   18   19 2
    16   21   22 2
    17   17   18 1
    18   20   21 1
    19   17   20 2
    20   16   17 1
    21   13   16 1
    22   15   16 1
    23   12   13 1
    24   14   15 1
    25   11   12 1
    26   11   14 1
    27   10   11 1
    28    9   10 2
    29    7   10 1
    30    8    9 1
    31    6    7 2
    32    5    8 2
    33    5    6 1
    34    2    5 1
    35    2    3 1
    36    2    4 1
    37    1    2 1
    38    1   34 1
    39    1   35 1
    40    1   36 1
    41    3   37 1
    42    3   38 1
    43    3   39 1
    44    4   40 1
    45    6   41 1
    46    8   42 1
    47    9   43 1
    48   12   44 1
    49   12   45 1
    50   13   46 1
    51   13   47 1
    52   14   48 1
    53   14   49 1
    54   15   50 1
    55   15   51 1
    56   21   52 1
    57   22   53 1
    58   23   54 1
    59   24   55 1
    60   27   56 1
    61   27   57 1
    62   29   58 1
    63   30   59 1
    64   31   60 1
    65   32   61 1
    66   33   62 1
@<TRIPOS>SUBSTRUCTURE
     1 A8T1        1 RESIDUE           4 A     A8T     0 ROOT
