@<TRIPOS>MOLECULE
GBQ
58 61 1 0 0 
SMALL
USER_CHARGES


@<TRIPOS>ATOM
  1 C13    -85.0040    63.2210   360.8720 C.3   1 GBQ   1.1635 
  2 C21    -86.1230    63.3210   369.1100 C.3   1 GBQ   0.1100 
  3 H211   -86.6721    64.0390   369.7192 H     1 GBQ   0.0800 
  4 H212   -86.0661    62.3675   369.6350 H     1 GBQ   0.0800 
  5 C22    -84.7230    63.8400   368.8820 C.3   1 GBQ   0.1200 
  6 H221   -84.1998    63.9118   369.8355 H     1 GBQ   0.0800 
  7 H222   -84.7692    64.8251   368.4178 H     1 GBQ   0.0800 
  8 C24    -88.1440    62.5780   368.2190 C.3   1 GBQ   0.1710 
  9 H241   -88.7451    62.4096   367.3255 H     1 GBQ   0.0800 
 10 H242   -87.9879    61.6310   368.7357 H     1 GBQ   0.0800 
 11 C01    -83.3790    65.9990   365.6090 C.3   1 GBQ  -0.2400 
 12 H011   -82.4374    66.4089   365.2436 H     1 GBQ   0.0800 
 13 H012   -83.5491    66.3353   366.6318 H     1 GBQ   0.0800 
 14 H013   -84.1955    66.3417   364.9734 H     1 GBQ   0.0800 
 15 C02    -83.3150    64.4480   365.5780 C.3   1 GBQ   0.3435 
 16 H02    -82.5106    64.0661   366.2066 H     1 GBQ   0.0800 
 17 C03    -83.0320    63.9680   364.1040 C.ar  1 GBQ  -0.1435 
 18 C04    -84.0720    63.8020   363.1700 C.ar  1 GBQ  -0.1500 
 19 H04    -85.0898    64.0002   363.4720 H     1 GBQ   0.1500 
 20 C05    -83.8140    63.3830   361.8500 C.ar  1 GBQ  -0.1435 
 21 C06    -82.5020    63.1160   361.4260 C.ar  1 GBQ  -0.1500 
 22 H06    -82.3036    62.7952   360.4140 H     1 GBQ   0.1500 
 23 C07    -81.4490    63.2760   362.3510 C.ar  1 GBQ  -0.1435 
 24 C08    -81.7100    63.6990   363.6750 C.ar  1 GBQ  -0.1500 
 25 H08    -80.8901    63.8184   364.3678 H     1 GBQ   0.1500 
 26 C09    -80.0010    62.9880   361.9010 C.3   1 GBQ   1.1635 
 27 C18    -84.6040    62.7130   366.7550 C.3   1 GBQ   0.4800 
 28 H18    -84.0464    61.9458   366.2179 H     1 GBQ   0.0800 
 29 C19    -86.1150    62.1860   366.8860 C.3   1 GBQ   0.3335 
 30 H19    -86.0345    61.1571   367.2366 H     1 GBQ   0.0800 
 31 C25    -88.8920    63.5350   369.1490 C.2   1 GBQ   0.4490 
 32 C27    -89.9360    65.4220   369.8890 C.2   1 GBQ   0.6900 
 33 C31    -86.9420    62.1310   365.5590 C.ar  1 GBQ  -0.1435 
 34 C32    -87.1100    60.9300   364.8270 C.ar  1 GBQ  -0.1500 
 35 H32    -86.6548    60.0252   365.2018 H     1 GBQ   0.1500 
 36 C33    -87.8500    60.8710   363.6260 C.ar  1 GBQ  -0.1500 
 37 H33    -87.9643    59.9376   363.0949 H     1 GBQ   0.1500 
 38 C34    -88.4330    62.0470   363.1370 C.ar  1 GBQ   0.1900 
 39 C35    -88.2970    63.2720   363.8170 C.ar  1 GBQ  -0.1500 
 40 H35    -88.7547    64.1709   363.4312 H     1 GBQ   0.1500 
 41 C36    -87.5500    63.3000   365.0130 C.ar  1 GBQ  -0.1500 
 42 H36    -87.4343    64.2392   365.5335 H     1 GBQ   0.1500 
 43 F10    -79.1530    64.0510   361.8170 F     1 GBQ  -0.3400 
 44 F11    -79.8540    62.4280   360.6700 F     1 GBQ  -0.3400 
 45 F12    -79.2900    62.1340   362.6700 F     1 GBQ  -0.3400 
 46 F14    -85.4070    61.9490   360.6130 F     1 GBQ  -0.3400 
 47 F15    -86.1730    63.8060   361.2380 F     1 GBQ  -0.3400 
 48 F16    -84.8430    63.7270   359.6220 F     1 GBQ  -0.3400 
 49 F37    -89.1500    62.0040   361.9740 F     1 GBQ  -0.1900 
 50 N20    -86.8480    63.1230   367.8240 N.3   1 GBQ  -0.8100 
 51 N26    -89.2810    64.8080   368.7770 N.am  1 GBQ  -0.4900 
 52 H26    -89.1284    65.2321   367.8732 H     1 GBQ   0.3700 
 53 N29    -89.9200    64.4670   370.9670 N.am  1 GBQ  -0.3680 
 54 H29    -90.3036    64.6004   371.8918 H     1 GBQ   0.3700 
 55 N30    -89.2620    63.2990   370.4850 N.2   1 GBQ  -0.5120 
 56 O17    -84.5720    63.9530   366.0660 O.3   1 GBQ  -0.5600 
 57 O23    -84.0340    62.9440   368.0280 O.3   1 GBQ  -0.5600 
 58 O28    -90.4310    66.5360   369.9740 O.2   1 GBQ  -0.5700 
@<TRIPOS>BOND
  1   1  20  1   
  2   1  46  1   
  3   1  47  1   
  4   1  48  1   
  5   2   3  1   
  6   2   4  1   
  7   2   5  1   
  8   2  50  1   
  9   5   6  1   
 10   5   7  1   
 11   5  57  1   
 12   8   9  1   
 13   8  10  1   
 14   8  31  1   
 15   8  50  1   
 16  11  12  1   
 17  11  13  1   
 18  11  14  1   
 19  11  15  1   
 20  15  16  1   
 21  15  17  1   
 22  15  56  1   
 23  17  18  ar  
 24  17  24  ar  
 25  18  19  1   
 26  18  20  ar  
 27  20  21  ar  
 28  21  22  1   
 29  21  23  ar  
 30  23  24  ar  
 31  23  26  1   
 32  24  25  1   
 33  26  43  1   
 34  26  44  1   
 35  26  45  1   
 36  27  28  1   
 37  27  29  1   
 38  27  56  1   
 39  27  57  1   
 40  29  30  1   
 41  29  33  1   
 42  29  50  1   
 43  31  51  1   
 44  31  55  2   
 45  32  51  am  
 46  32  53  am  
 47  32  58  2   
 48  33  34  ar  
 49  33  41  ar  
 50  34  35  1   
 51  34  36  ar  
 52  36  37  1   
 53  36  38  ar  
 54  38  39  ar  
 55  38  49  1   
 56  39  40  1   
 57  39  41  ar  
 58  41  42  1   
 59  51  52  1   
 60  53  54  1   
 61  53  55  1   
@<TRIPOS>SUBSTRUCTURE
  1 GBQ  56 GROUP 4 L **** 0

# MOE 2019.01 (io_trps.svl 2018.10)
