@<TRIPOS>MOLECULE
GBQ
58 61 1 0 0 
SMALL
USER_CHARGES


@<TRIPOS>ATOM
  1 C13    -85.2250    63.1360   361.0340 C.3   1 GBQ   1.1635 
  2 C21    -85.6520    63.2650   369.4210 C.3   1 GBQ   0.1100 
  3 H212   -85.4620    62.4400   369.9530 H     1 GBQ   0.0800 
  4 H213   -86.1290    63.9310   369.9950 H     1 GBQ   0.0800 
  5 C22    -84.3310    63.8690   368.9590 C.3   1 GBQ   0.1200 
  6 H222   -84.4840    64.7590   368.5300 H     1 GBQ   0.0800 
  7 H223   -83.7050    63.9740   369.7320 H     1 GBQ   0.0800 
  8 C24    -87.7220    62.2000   368.9210 C.3   1 GBQ   0.1710 
  9 H242   -87.4480    61.7820   369.7870 H     1 GBQ   0.0800 
 10 H243   -88.0660    61.4930   368.3030 H     1 GBQ   0.0800 
 11 C01    -83.4870    66.0380   365.3330 C.3   1 GBQ  -0.2400 
 12 H011   -83.6150    66.4300   366.2440 H     1 GBQ   0.0800 
 13 H012   -84.2280    66.3690   364.7490 H     1 GBQ   0.0800 
 14 H013   -82.6260    66.3890   364.9660 H     1 GBQ   0.0800 
 15 C02    -83.4760    64.5130   365.3900 C.3   1 GBQ   0.3435 
 16 H02    -82.7140    64.1170   365.9040 H     1 GBQ   0.0800 
 17 C03    -83.2960    63.9830   364.1070 C.ar  1 GBQ  -0.1435 
 18 C04    -84.3620    63.8130   363.2080 C.ar  1 GBQ  -0.1500 
 19 H04    -85.2870    64.0730   363.4830 H     1 GBQ   0.1500 
 20 C05    -84.1400    63.2830   361.9320 C.ar  1 GBQ  -0.1435 
 21 C06    -82.8180    62.9640   361.5530 C.ar  1 GBQ  -0.1500 
 22 H06    -82.6430    62.6260   360.6280 H     1 GBQ   0.1500 
 23 C07    -81.7410    63.1100   362.4480 C.ar  1 GBQ  -0.1435 
 24 C08    -82.0000    63.6360   363.7180 C.ar  1 GBQ  -0.1500 
 25 H08    -81.2430    63.7660   364.3590 H     1 GBQ   0.1500 
 26 C09    -80.3990    62.7930   362.0950 C.3   1 GBQ   1.1635 
 27 C18    -84.5360    62.7840   366.7620 C.3   1 GBQ   0.4800 
 28 H18    -84.0130    62.1900   366.1520 H     1 GBQ   0.0800 
 29 C19    -85.9470    62.1710   367.1400 C.3   1 GBQ   0.3335 
 30 H19    -85.9230    61.2150   367.4310 H     1 GBQ   0.0800 
 31 C25    -88.7680    63.2830   369.1460 C.2   1 GBQ   0.4490 
 32 C27    -89.8540    64.9160   369.9510 C.2   1 GBQ   0.6900 
 33 C31    -86.7710    62.1040   365.9670 C.ar  1 GBQ  -0.1435 
 34 C32    -87.6340    63.1570   365.5890 C.ar  1 GBQ  -0.1500 
 35 H32    -87.6720    63.9850   366.1490 H     1 GBQ   0.1500 
 36 C33    -88.4340    63.0650   364.4520 C.ar  1 GBQ  -0.1500 
 37 H33    -89.0500    63.8120   364.2010 H     1 GBQ   0.1500 
 38 C34    -88.3610    61.9060   363.6660 C.ar  1 GBQ   0.1900 
 39 C35    -87.4990    60.8490   364.0080 C.ar  1 GBQ  -0.1500 
 40 H35    -87.4460    60.0340   363.4300 H     1 GBQ   0.1500 
 41 C36    -86.7160    60.9460   365.1640 C.ar  1 GBQ  -0.1500 
 42 H36    -86.1140    60.1900   365.4220 H     1 GBQ   0.1500 
 43 F10    -79.6910    63.9760   361.9140 F     1 GBQ  -0.3400 
 44 F11    -79.7480    62.0560   363.1090 F     1 GBQ  -0.3400 
 45 F12    -80.3510    62.0430   360.9390 F     1 GBQ  -0.3400 
 46 F14    -86.1610    62.4710   361.5310 F     1 GBQ  -0.3400 
 47 F15    -84.8280    62.5030   359.9210 F     1 GBQ  -0.3400 
 48 F16    -85.7270    64.3180   360.7410 F     1 GBQ  -0.3400 
 49 F37    -89.1520    61.8140   362.5250 F     1 GBQ  -0.1900 
 50 N20    -86.5650    62.8880   368.3050 N.3   1 GBQ  -0.8100 
 51 N26    -88.8780    64.0520   370.2340 N.am  1 GBQ  -0.4900 
 52 H26    -88.3388    63.9918   371.0859 H     1 GBQ   0.3700 
 53 N29    -90.3100    64.7190   368.7200 N.am  1 GBQ  -0.3680 
 54 H29    -91.0496    65.2332   368.2631 H     1 GBQ   0.3700 
 55 N30    -89.5970    63.7010   368.1960 N.2   1 GBQ  -0.5120 
 56 O17    -84.6790    64.0560   366.0340 O.3   1 GBQ  -0.5600 
 57 O23    -83.7260    62.9680   367.9790 O.3   1 GBQ  -0.5600 
 58 O28    -90.2790    65.7900   370.6980 O.2   1 GBQ  -0.5700 
@<TRIPOS>BOND
  1   1  20  1   
  2   1  46  1   
  3   1  47  1   
  4   1  48  1   
  5   2   3  1   
  6   2   4  1   
  7   2   5  1   
  8   2  50  1   
  9   5   6  1   
 10   5   7  1   
 11   5  57  1   
 12   8   9  1   
 13   8  10  1   
 14   8  31  1   
 15   8  50  1   
 16  11  12  1   
 17  11  13  1   
 18  11  14  1   
 19  11  15  1   
 20  15  16  1   
 21  15  17  1   
 22  15  56  1   
 23  17  18  ar  
 24  17  24  ar  
 25  18  19  1   
 26  18  20  ar  
 27  20  21  ar  
 28  21  22  1   
 29  21  23  ar  
 30  23  24  ar  
 31  23  26  1   
 32  24  25  1   
 33  26  43  1   
 34  26  44  1   
 35  26  45  1   
 36  27  28  1   
 37  27  29  1   
 38  27  56  1   
 39  27  57  1   
 40  29  30  1   
 41  29  33  1   
 42  29  50  1   
 43  31  51  1   
 44  31  55  2   
 45  32  51  am  
 46  32  53  am  
 47  32  58  2   
 48  33  34  ar  
 49  33  41  ar  
 50  34  35  1   
 51  34  36  ar  
 52  36  37  1   
 53  36  38  ar  
 54  38  39  ar  
 55  38  49  1   
 56  39  40  1   
 57  39  41  ar  
 58  41  42  1   
 59  51  52  1   
 60  53  54  1   
 61  53  55  1   
@<TRIPOS>SUBSTRUCTURE
  1 GBQ  56 GROUP 4 P **** 0

# MOE 2019.01 (io_trps.svl 2018.10)
