@<TRIPOS>MOLECULE
GBQ
58 61 1 0 0 
SMALL
USER_CHARGES


@<TRIPOS>ATOM
  1 C13    -85.2390    63.1640   361.1900 C.3   1 GBQ   1.1635 
  2 C21    -85.7630    63.1710   369.5650 C.3   1 GBQ   0.1100 
  3 H212   -85.6020    62.2770   369.9830 H     1 GBQ   0.0800 
  4 H213   -86.2150    63.7720   370.2240 H     1 GBQ   0.0800 
  5 C22    -84.4290    63.7850   369.1510 C.3   1 GBQ   0.1200 
  6 H222   -84.5620    64.7210   368.8230 H     1 GBQ   0.0800 
  7 H223   -83.7920    63.7900   369.9220 H     1 GBQ   0.0800 
  8 C24    -87.9720    62.5600   368.9490 C.3   1 GBQ   0.1710 
  9 H242   -87.8360    62.0300   369.7860 H     1 GBQ   0.0800 
 10 H243   -88.4510    62.0000   368.2730 H     1 GBQ   0.0800 
 11 C01    -83.6680    66.1700   365.5600 C.3   1 GBQ  -0.2400 
 12 H011   -83.8380    66.5480   366.4700 H     1 GBQ   0.0800 
 13 H012   -84.3780    66.5160   364.9470 H     1 GBQ   0.0800 
 14 H013   -82.7880    66.5210   365.2410 H     1 GBQ   0.0800 
 15 C02    -83.6700    64.6510   365.5920 C.3   1 GBQ   0.3435 
 16 H02    -82.9250    64.2570   366.1310 H     1 GBQ   0.0800 
 17 C03    -83.4300    64.1260   364.3080 C.ar  1 GBQ  -0.1435 
 18 C04    -84.4570    63.9230   363.3700 C.ar  1 GBQ  -0.1500 
 19 H04    -85.3950    64.1770   363.6050 H     1 GBQ   0.1500 
 20 C05    -84.1870    63.3690   362.1110 C.ar  1 GBQ  -0.1435 
 21 C06    -82.8560    63.0350   361.7970 C.ar  1 GBQ  -0.1500 
 22 H06    -82.6480    62.6550   360.8950 H     1 GBQ   0.1500 
 23 C07    -81.8110    63.2220   362.7220 C.ar  1 GBQ  -0.1435 
 24 C08    -82.1210    63.7700   363.9730 C.ar  1 GBQ  -0.1500 
 25 H08    -81.3900    63.9090   364.6410 H     1 GBQ   0.1500 
 26 C09    -80.4590    62.8910   362.4230 C.3   1 GBQ   1.1635 
 27 C18    -84.7170    62.8740   366.8780 C.3   1 GBQ   0.4800 
 28 H18    -84.2190    62.3260   366.2060 H     1 GBQ   0.0800 
 29 C19    -86.0880    62.2100   367.2910 C.3   1 GBQ   0.3335 
 30 H19    -86.0650    61.2660   367.6210 H     1 GBQ   0.0800 
 31 C25    -88.7250    63.8570   369.2290 C.2   1 GBQ   0.4490 
 32 C27    -89.8110    65.3990   370.1410 C.2   1 GBQ   0.6900 
 33 C31    -86.9020    62.0520   366.1340 C.ar  1 GBQ  -0.1435 
 34 C32    -87.7530    63.0650   365.6550 C.ar  1 GBQ  -0.1500 
 35 H32    -87.8000    63.9420   366.1330 H     1 GBQ   0.1500 
 36 C33    -88.5310    62.8530   364.5140 C.ar  1 GBQ  -0.1500 
 37 H33    -89.1270    63.5790   364.1710 H     1 GBQ   0.1500 
 38 C34    -88.4740    61.6200   363.8540 C.ar  1 GBQ   0.1900 
 39 C35    -87.6330    60.5980   364.3160 C.ar  1 GBQ  -0.1500 
 40 H35    -87.5930    59.7200   363.8380 H     1 GBQ   0.1500 
 41 C36    -86.8520    60.8220   365.4560 C.ar  1 GBQ  -0.1500 
 42 H36    -86.2500    60.0980   365.7910 H     1 GBQ   0.1500 
 43 F10    -79.7000    64.0420   362.4010 F     1 GBQ  -0.3400 
 44 F11    -79.9390    62.0320   363.4180 F     1 GBQ  -0.3400 
 45 F12    -80.3230    62.2420   361.1560 F     1 GBQ  -0.3400 
 46 F14    -86.1970    62.4370   361.7150 F     1 GBQ  -0.3400 
 47 F15    -84.8220    62.5550   360.1540 F     1 GBQ  -0.3400 
 48 F16    -85.7340    64.2880   360.8390 F     1 GBQ  -0.3400 
 49 F37    -89.2540    61.4180   362.7520 F     1 GBQ  -0.1900 
 50 N20    -86.6750    62.9830   368.4140 N.3   1 GBQ  -0.8100 
 51 N26    -89.3840    64.1550   370.3410 N.2   1 GBQ  -0.4900 
 52 N29    -89.4070    65.8860   368.9790 N.am  1 GBQ  -0.3680 
 53 H29    -89.5954    66.8039   368.6021 H     1 GBQ   0.3700 
 54 N30    -88.6960    64.9060   368.4080 N.pl3 1 GBQ  -0.5120 
 55 H30    -88.2234    64.9532   367.5166 H     1 GBQ   0.0000 
 56 O17    -84.8960    64.1770   366.1950 O.3   1 GBQ  -0.5600 
 57 O23    -83.8510    62.9870   368.0700 O.3   1 GBQ  -0.5600 
 58 O28    -90.4940    66.0350   370.9260 O.2   1 GBQ  -0.5700 
@<TRIPOS>BOND
  1   1  20  1   
  2   1  46  1   
  3   1  47  1   
  4   1  48  1   
  5   2   3  1   
  6   2   4  1   
  7   2   5  1   
  8   2  50  1   
  9   5   6  1   
 10   5   7  1   
 11   5  57  1   
 12   8   9  1   
 13   8  10  1   
 14   8  31  1   
 15   8  50  1   
 16  11  12  1   
 17  11  13  1   
 18  11  14  1   
 19  11  15  1   
 20  15  16  1   
 21  15  17  1   
 22  15  56  1   
 23  17  18  ar  
 24  17  24  ar  
 25  18  19  1   
 26  18  20  ar  
 27  20  21  ar  
 28  21  22  1   
 29  21  23  ar  
 30  23  24  ar  
 31  23  26  1   
 32  24  25  1   
 33  26  43  1   
 34  26  44  1   
 35  26  45  1   
 36  27  28  1   
 37  27  29  1   
 38  27  56  1   
 39  27  57  1   
 40  29  30  1   
 41  29  33  1   
 42  29  50  1   
 43  31  51  2   
 44  31  54  1   
 45  32  51  1   
 46  32  52  am  
 47  32  58  2   
 48  33  34  ar  
 49  33  41  ar  
 50  34  35  1   
 51  34  36  ar  
 52  36  37  1   
 53  36  38  ar  
 54  38  39  ar  
 55  38  49  1   
 56  39  40  1   
 57  39  41  ar  
 58  41  42  1   
 59  52  53  1   
 60  52  54  1   
 61  54  55  1   
@<TRIPOS>SUBSTRUCTURE
  1 GBQ  56 GROUP 4 P **** 0

# MOE 2019.01 (io_trps.svl 2018.10)
