# created with PyMOL 2.3.5
@<TRIPOS>MOLECULE
GBQ
59 62 1 0 0
SMALL
USER_CHARGES


@<TRIPOS>ATOM
      1 C13        -2.2740   -2.6880   -1.4100 C.3       1 GBQ1        0.0000
      2 C21         3.6230    0.5030    2.2350 C.3       1 GBQ1        0.0000
      3 C22         2.4560    0.3100    3.2070 C.3       1 GBQ1        0.0000
      4 C24         4.1840    0.9200   -0.0840 C.3       1 GBQ1        0.0000
      5 C01        -0.7360   -0.3730    3.3650 C.3       1 GBQ1        0.0000
      6 C02        -0.9510    0.5530    2.1670 C.3       1 GBQ1        0.0000
      7 C03        -2.0030   -0.0330    1.2610 C.2       1 GBQ1        0.0000
      8 C04        -1.6710   -1.0460    0.3800 C.2       1 GBQ1        0.0000
      9 C05        -2.6360   -1.5840   -0.4500 C.2       1 GBQ1        0.0000
     10 C06        -3.9330   -1.1080   -0.4010 C.2       1 GBQ1        0.0000
     11 C07        -4.2650   -0.0940    0.4780 C.2       1 GBQ1        0.0000
     12 C08        -3.3010    0.4390    1.3130 C.2       1 GBQ1        0.0000
     13 C09        -5.6780    0.4240    0.5310 C.3       1 GBQ1        0.0000
     14 C18         1.0930    1.7750    1.8910 C.3       1 GBQ1        0.0000
     15 C19         2.2460    1.9840    0.9060 C.3       1 GBQ1        0.0000
     16 C25         4.8850   -0.4040   -0.2440 C.2       1 GBQ1        0.0000
     17 C27         5.4030   -2.4980    0.0070 C.2       1 GBQ1        0.0000
     18 C31         1.6920    2.2240   -0.4750 C.2       1 GBQ1        0.0000
     19 C32         1.2670    1.1570   -1.2440 C.2       1 GBQ1        0.0000
     20 C33         0.7580    1.3770   -2.5100 C.2       1 GBQ1        0.0000
     21 C34         0.6740    2.6660   -3.0080 C.2       1 GBQ1        0.0000
     22 C35         1.1000    3.7340   -2.2360 C.2       1 GBQ1        0.0000
     23 C36         1.6040    3.5130   -0.9690 C.2       1 GBQ1        0.0000
     24 F10        -6.4650   -0.2690   -0.3950 F         1 GBQ1        0.0000
     25 F11        -6.1970    0.2360    1.8170 F         1 GBQ1        0.0000
     26 F12        -5.6870    1.7880    0.2200 F         1 GBQ1        0.0000
     27 F14        -2.4550   -3.9270   -0.7850 F         1 GBQ1        0.0000
     28 F15        -3.0940   -2.6110   -2.5400 F         1 GBQ1        0.0000
     29 F16        -0.9360   -2.5520   -1.7940 F         1 GBQ1        0.0000
     30 F37         0.1770    2.8820   -4.2450 F         1 GBQ1        0.0000
     31 N20         3.0950    0.7840    0.8920 N.3       1 GBQ1        0.0000
     32 N26         4.5760   -1.5080    0.3850 N.2       1 GBQ1        0.0000
     33 N29         6.2640   -2.0010   -0.9060 N.pl3     1 GBQ1        0.0000
     34 N30         5.9310   -0.6460   -1.0650 N.pl3     1 GBQ1        0.0000
     35 O17         0.2760    0.6910    1.4460 O.3       1 GBQ1        0.0000
     36 O23         1.6250    1.4730    3.1840 O.3       1 GBQ1        0.0000
     37 O28         5.3750   -3.6460    0.4110 O.2       1 GBQ1        0.0000
     38 H1          4.2380    1.3410    2.5660 H         1 GBQ1        0.0000
     39 H2          4.2270   -0.4030    2.2070 H         1 GBQ1        0.0000
     40 H3          1.8720   -0.5600    2.9050 H         1 GBQ1        0.0000
     41 H4          2.8420    0.1580    4.2140 H         1 GBQ1        0.0000
     42 H5          4.8950    1.6680    0.2670 H         1 GBQ1        0.0000
     43 H6          3.7740    1.2320   -1.0450 H         1 GBQ1        0.0000
     44 H7         -0.4090   -1.3520    3.0140 H         1 GBQ1        0.0000
     45 H8          0.0250    0.0510    4.0210 H         1 GBQ1        0.0000
     46 H9         -1.6720   -0.4780    3.9150 H         1 GBQ1        0.0000
     47 H10        -1.2780    1.5320    2.5180 H         1 GBQ1        0.0000
     48 H11        -0.6570   -1.4170    0.3420 H         1 GBQ1        0.0000
     49 H12        -4.6870   -1.5280   -1.0510 H         1 GBQ1        0.0000
     50 H13        -3.5610    1.2270    2.0040 H         1 GBQ1        0.0000
     51 H14         0.4930    2.6840    1.9470 H         1 GBQ1        0.0000
     52 H15         2.8380    2.8450    1.2160 H         1 GBQ1        0.0000
     53 H16         1.3330    0.1520   -0.8550 H         1 GBQ1        0.0000
     54 H17         0.4260    0.5430   -3.1110 H         1 GBQ1        0.0000
     55 H18         1.0350    4.7400   -2.6240 H         1 GBQ1        0.0000
     56 H19         1.9320    4.3460   -0.3650 H         1 GBQ1        0.0000
     57 H21         6.3650   -0.0080   -1.6530 H         1 GBQ1        0.0000
     58 H22         6.9750   -2.4830   -1.3590 H         1 GBQ1        0.0000
     59 HN          2.5222    0.0005    0.6124 H         1 GBQ1        0.0000
@<TRIPOS>BOND
     1   33   34 1
     2   17   33 1
     3   16   34 1
     4   17   37 2
     5   17   32 1
     6    2    3 1
     7    2   31 1
     8   16   32 2
     9    4   16 1
    10    3   36 1
    11    4   31 1
    12   14   36 1
    13   15   31 1
    14   14   15 1
    15   15   18 1
    16   14   35 1
    17    6   35 1
    18   18   23 2
    19   18   19 1
    20    5    6 1
    21    6    7 1
    22   22   23 1
    23   19   20 2
    24    7   12 2
    25    7    8 1
    26   21   22 2
    27   20   21 1
    28   11   12 1
    29   21   30 1
    30    8    9 2
    31   13   26 1
    32   11   13 1
    33   10   11 2
    34   13   24 1
    35   13   25 1
    36    9   10 1
    37    1    9 1
    38    1   28 1
    39    1   27 1
    40    1   29 1
    41    2   38 1
    42    2   39 1
    43    3   40 1
    44    3   41 1
    45    4   42 1
    46    4   43 1
    47    5   44 1
    48    5   45 1
    49    5   46 1
    50    6   47 1
    51    8   48 1
    52   10   49 1
    53   12   50 1
    54   14   51 1
    55   15   52 1
    56   19   53 1
    57   20   54 1
    58   22   55 1
    59   23   56 1
    60   34   57 1
    61   33   58 1
    62   59   31 1
@<TRIPOS>SUBSTRUCTURE
     1 GBQ1        1 RESIDUE           4 A     GBQ     0 ROOT
