@<TRIPOS>MOLECULE
8NU
59 63 1 0 0 
SMALL
USER_CHARGES


@<TRIPOS>ATOM
  1 C01     10.8750     1.4190    64.6530 C.3   1 Q8NU  -0.1018 
  2 H011    10.4807     1.4566    65.6685 H     1 Q8NU   0.0800 
  3 H012    10.7331     2.3868    64.1721 H     1 Q8NU   0.0800 
  4 H013    11.9383     1.1814    64.6847 H     1 Q8NU   0.0800 
  5 C02     10.0800     0.2610    63.7990 C.2   1 Q8NU   0.2028 
  6 C03     10.3740     0.0030    62.5010 C.2   1 Q8NU  -0.1238 
  7 C04     11.4700     0.7270    61.6580 C.3   1 Q8NU  -0.0218 
  8 H041    11.5322     1.7684    61.9739 H     1 Q8NU   0.0800 
  9 H042    11.1956     0.6829    60.6040 H     1 Q8NU   0.0800 
 10 C05     12.8300     0.0680    61.8460 C.3   1 Q8NU   0.3430 
 11 H051    12.7399    -1.0018    61.6578 H     1 Q8NU   0.0800 
 12 H052    13.1691     0.2295    62.8692 H     1 Q8NU   0.0800 
 13 C07     15.1460     0.2650    61.4670 C.3   1 Q8NU   0.3430 
 14 H071    15.3416     0.8932    62.3360 H     1 Q8NU   0.0800 
 15 H072    15.0877    -0.7779    61.7784 H     1 Q8NU   0.0800 
 16 C08     16.3220     0.4130    60.4880 C.3   1 Q8NU  -0.1600 
 17 H081    16.4778     1.4736    60.2906 H     1 Q8NU   0.0800 
 18 H082    17.2150    -0.0051    60.9526 H     1 Q8NU   0.0800 
 19 C09     16.0830    -0.3110    59.1370 C.3   1 Q8NU   0.1010 
 20 H09     16.1421    -1.3701    59.3879 H     1 Q8NU   0.0800 
 21 C10     14.7150     0.1020    58.5670 C.3   1 Q8NU  -0.1600 
 22 H101    14.4856    -0.5522    57.7259 H     1 Q8NU   0.0800 
 23 H102    14.7894     1.1315    58.2168 H     1 Q8NU   0.0800 
 24 C11     13.5600     0.0200    59.5630 C.3   1 Q8NU   0.3430 
 25 H111    13.3303    -1.0323    59.7306 H     1 Q8NU   0.0800 
 26 H112    12.6950     0.5148    59.1213 H     1 Q8NU   0.0800 
 27 C12     17.1410    -0.0710    58.0390 C.2   1 Q8NU   0.1078 
 28 C15     19.1000    -0.1510    56.7940 C.ar  1 Q8NU   0.1400 
 29 C16     18.5100    -0.6800    57.9630 C.ar  1 Q8NU   0.0000 
 30 C17     19.2850    -1.5900    58.7420 C.ar  1 Q8NU  -0.1500 
 31 H17     18.8575    -2.0030    59.6437 H     1 Q8NU   0.1500 
 32 C18     20.5830    -1.9640    58.3730 C.ar  1 Q8NU  -0.1500 
 33 H18     21.1442    -2.6581    58.9810 H     1 Q8NU   0.1500 
 34 C19     21.1610    -1.4150    57.1770 C.ar  1 Q8NU   0.1900 
 35 C21     20.4310    -0.5050    56.3770 C.ar  1 Q8NU  -0.1500 
 36 H21     20.8606    -0.0876    55.4783 H     1 Q8NU   0.1500 
 37 C22      9.6250    -1.0970    61.6990 C.2   1 Q8NU   0.9366 
 38 C25      7.6810    -3.0120    61.7640 C.3   1 Q8NU   0.3295 
 39 H251     6.8641    -2.5425    61.2160 H     1 Q8NU   0.0800 
 40 H252     8.3300    -3.5409    61.0660 H     1 Q8NU   0.0800 
 41 C26      7.0730    -4.0500    62.7310 C.3   1 Q8NU  -0.1600 
 42 H261     6.4310    -4.7342    62.1762 H     1 Q8NU   0.0800 
 43 H262     7.8725    -4.6124    63.2133 H     1 Q8NU   0.0800 
 44 C27      6.2580    -3.3280    63.7790 C.3   1 Q8NU  -0.1600 
 45 H271     5.8348    -4.0565    64.4706 H     1 Q8NU   0.0800 
 46 H272     5.4523    -2.7782    63.2925 H     1 Q8NU   0.0800 
 47 C28      7.1480    -2.3410    64.5610 C.3   1 Q8NU  -0.0550 
 48 H281     7.6365    -2.9233    65.3423 H     1 Q8NU   0.0800 
 49 H282     6.4732    -1.6161    65.0163 H     1 Q8NU   0.0800 
 50 C29      8.3460    -1.4600    63.8190 C.cat 1 Q8NU   0.6038 
 51 F20     22.3840    -1.7800    56.8470 F     1 Q8NU  -0.1900 
 52 N06     13.8330     0.6560    60.8930 N.4   1 Q8NU  -0.9590 
 53 H06     13.8008     1.6579    60.7692 H     1 Q8NU   0.4500 
 54 N13     17.0180     0.7350    56.9740 N.2   1 Q8NU  -0.4097 
 55 N24      8.5350    -1.8620    62.4550 N.pl3 1 Q8NU  -0.7249 
 56 N30      9.0170    -0.5180    64.4590 N.pl3 1 Q8NU  -0.6454 
 57 H30      8.7955    -0.3270    65.4257 H     1 Q8NU   0.4500 
 58 O14     18.1460     0.7090    56.2220 O.3   1 Q8NU  -0.0191 
 59 O23      9.8410    -1.3830    60.5280 O.2   1 Q8NU  -0.5700 
@<TRIPOS>BOND
  1   1   2  1   
  2   1   3  1   
  3   1   4  1   
  4   1   5  1   
  5   5   6  2   
  6   5  56  1   
  7   6   7  1   
  8   6  37  1   
  9   7   8  1   
 10   7   9  1   
 11   7  10  1   
 12  10  11  1   
 13  10  12  1   
 14  10  52  1   
 15  13  14  1   
 16  13  15  1   
 17  13  16  1   
 18  13  52  1   
 19  16  17  1   
 20  16  18  1   
 21  16  19  1   
 22  19  20  1   
 23  19  21  1   
 24  19  27  1   
 25  21  22  1   
 26  21  23  1   
 27  21  24  1   
 28  24  25  1   
 29  24  26  1   
 30  24  52  1   
 31  27  29  1   
 32  27  54  2   
 33  28  29  ar  
 34  28  35  ar  
 35  28  58  1   
 36  29  30  ar  
 37  30  31  1   
 38  30  32  ar  
 39  32  33  1   
 40  32  34  ar  
 41  34  35  ar  
 42  34  51  1   
 43  35  36  1   
 44  37  55  1   
 45  37  59  2   
 46  38  39  1   
 47  38  40  1   
 48  38  41  1   
 49  38  55  1   
 50  41  42  1   
 51  41  43  1   
 52  41  44  1   
 53  44  45  1   
 54  44  46  1   
 55  44  47  1   
 56  47  48  1   
 57  47  49  1   
 58  47  50  1   
 59  50  55  ar  
 60  50  56  ar  
 61  52  53  1   
 62  54  58  1   
 63  56  57  1   
@<TRIPOS>SUBSTRUCTURE
  1 Q8NU  24 GROUP 4 A **** 0

# MOE 2019.01 (io_trps.svl 2018.10)
