@<TRIPOS>MOLECULE
8NU
59 63 1 0 0 
SMALL
USER_CHARGES


@<TRIPOS>ATOM
  1 C01      5.7980     4.5200   -12.8980 C.3   1 Q8NU  -0.1018 
  2 H011     5.0134     3.9363   -13.3794 H     1 Q8NU   0.0800 
  3 H012     5.6812     5.5716   -13.1599 H     1 Q8NU   0.0800 
  4 H013     5.7250     4.4047   -11.8166 H     1 Q8NU   0.0800 
  5 C02      7.1440     4.0330   -13.3650 C.2   1 Q8NU   0.2028 
  6 C03      8.2620     4.6000   -12.9090 C.2   1 Q8NU  -0.1238 
  7 C04      8.2060     5.7460   -11.8970 C.3   1 Q8NU  -0.0218 
  8 H041     7.1721     6.0580   -11.7493 H     1 Q8NU   0.0800 
  9 H042     8.7915     6.5898   -12.2619 H     1 Q8NU   0.0800 
 10 C05      8.7980     5.2360   -10.5560 C.3   1 Q8NU   0.3430 
 11 H051     9.8036     4.8616   -10.7477 H     1 Q8NU   0.0800 
 12 H052     8.1701     4.4219   -10.1938 H     1 Q8NU   0.0800 
 13 C07      9.8570     7.3230    -9.9030 C.3   1 Q8NU   0.3430 
 14 H071    10.8068     6.8490   -10.1506 H     1 Q8NU   0.0800 
 15 H072     9.4692     7.8399   -10.7808 H     1 Q8NU   0.0800 
 16 C08     10.0850     8.3470    -8.7770 C.3   1 Q8NU  -0.1600 
 17 H081     9.1481     8.8491    -8.5358 H     1 Q8NU   0.0800 
 18 H082    10.8230     9.0856    -9.0900 H     1 Q8NU   0.0800 
 19 C09     10.5980     7.5820    -7.5530 C.3   1 Q8NU   0.1010 
 20 H09     11.5127     7.0572    -7.8287 H     1 Q8NU   0.0800 
 21 C10      9.5690     6.5280    -7.1200 C.3   1 Q8NU  -0.1600 
 22 H101     8.6254     7.0133    -6.8705 H     1 Q8NU   0.0800 
 23 H102     9.9395     5.9852    -6.2504 H     1 Q8NU   0.0800 
 24 C11      9.3630     5.5650    -8.2800 C.3   1 Q8NU   0.3430 
 25 H111     8.6276     4.8139    -7.9917 H     1 Q8NU   0.0800 
 26 H112    10.3103     5.0768    -8.5087 H     1 Q8NU   0.0800 
 27 C12     10.9780     8.5130    -6.4340 C.2   1 Q8NU   0.1078 
 28 C15     11.6040     9.3870    -4.5610 C.ar  1 Q8NU   0.1400 
 29 C16     11.3460     8.1840    -5.1480 C.ar  1 Q8NU   0.0000 
 30 C17     11.4800     6.9760    -4.4820 C.ar  1 Q8NU  -0.1500 
 31 H17     11.2753     6.0333    -4.9676 H     1 Q8NU   0.1500 
 32 C18     11.8930     7.0420    -3.1520 C.ar  1 Q8NU  -0.1500 
 33 H18     12.0103     6.1295    -2.5864 H     1 Q8NU   0.1500 
 34 C19     12.1580     8.2710    -2.5380 C.ar  1 Q8NU   0.1900 
 35 C21     12.0170     9.4710    -3.2390 C.ar  1 Q8NU  -0.1500 
 36 H21     12.2207    10.4233    -2.7720 H     1 Q8NU   0.1500 
 37 C22      9.5440     4.0890   -13.3910 C.2   1 Q8NU   0.9366 
 38 C25     10.8280     2.5500   -14.8120 C.3   1 Q8NU   0.3295 
 39 H251    11.4578     3.4064   -15.0530 H     1 Q8NU   0.0800 
 40 H252    11.3092     1.9512   -14.0387 H     1 Q8NU   0.0800 
 41 C26     10.6590     1.6890   -16.0720 C.3   1 Q8NU  -0.1600 
 42 H261    11.6112     1.2287   -16.3358 H     1 Q8NU   0.0800 
 43 H262    10.3133     2.3085   -16.8996 H     1 Q8NU   0.0800 
 44 C27      9.6330     0.6130   -15.7710 C.3   1 Q8NU  -0.1600 
 45 H271     9.8881     0.1107   -14.8379 H     1 Q8NU   0.0800 
 46 H272     9.6132    -0.1151   -16.5819 H     1 Q8NU   0.0800 
 47 C28      8.2570     1.2840   -15.6410 C.3   1 Q8NU  -0.0550 
 48 H281     7.5420     0.5569   -15.2561 H     1 Q8NU   0.0800 
 49 H282     7.9339     1.6257   -16.6244 H     1 Q8NU   0.0800 
 50 C29      8.3110     2.4650   -14.7030 C.cat 1 Q8NU   0.6038 
 51 F20     12.5550     8.2900    -1.2570 F     1 Q8NU  -0.1900 
 52 N06      8.8820     6.2720    -9.4860 N.4   1 Q8NU  -0.9590 
 53 H06      7.9951     6.7229    -9.3121 H     1 Q8NU   0.4500 
 54 N13     11.0470     9.8420    -6.5210 N.2   1 Q8NU  -0.4097 
 55 N24      9.5520     3.0330   -14.3060 N.pl3 1 Q8NU  -0.7249 
 56 N30      7.2090     2.9460   -14.2700 N.pl3 1 Q8NU  -0.6454 
 57 H30      6.3446     2.5316   -14.5880 H     1 Q8NU   0.4500 
 58 O14     11.4040    10.3280    -5.4310 O.3   1 Q8NU  -0.0191 
 59 O23     10.7140     4.6530   -12.9830 O.2   1 Q8NU  -0.5700 
@<TRIPOS>BOND
  1   1   2  1   
  2   1   3  1   
  3   1   4  1   
  4   1   5  1   
  5   5   6  2   
  6   5  56  1   
  7   6   7  1   
  8   6  37  1   
  9   7   8  1   
 10   7   9  1   
 11   7  10  1   
 12  10  11  1   
 13  10  12  1   
 14  10  52  1   
 15  13  14  1   
 16  13  15  1   
 17  13  16  1   
 18  13  52  1   
 19  16  17  1   
 20  16  18  1   
 21  16  19  1   
 22  19  20  1   
 23  19  21  1   
 24  19  27  1   
 25  21  22  1   
 26  21  23  1   
 27  21  24  1   
 28  24  25  1   
 29  24  26  1   
 30  24  52  1   
 31  27  29  1   
 32  27  54  2   
 33  28  29  ar  
 34  28  35  ar  
 35  28  58  1   
 36  29  30  ar  
 37  30  31  1   
 38  30  32  ar  
 39  32  33  1   
 40  32  34  ar  
 41  34  35  ar  
 42  34  51  1   
 43  35  36  1   
 44  37  55  1   
 45  37  59  2   
 46  38  39  1   
 47  38  40  1   
 48  38  41  1   
 49  38  55  1   
 50  41  42  1   
 51  41  43  1   
 52  41  44  1   
 53  44  45  1   
 54  44  46  1   
 55  44  47  1   
 56  47  48  1   
 57  47  49  1   
 58  47  50  1   
 59  50  55  ar  
 60  50  56  ar  
 61  52  53  1   
 62  54  58  1   
 63  56  57  1   
@<TRIPOS>SUBSTRUCTURE
  1 Q8NU  52 GROUP 4 L **** 0

# MOE 2019.01 (io_trps.svl 2018.10)
