# created with PyMOL 2.3.5
@<TRIPOS>MOLECULE
8NU
58 62 1 0 0
SMALL
USER_CHARGES


@<TRIPOS>ATOM
      1 H01        -0.0780    1.3480    0.5030 H         1 8NU1        0.0000
      2 C01        -3.2620   -2.6460    0.9650 C.3       1 8NU1        0.0000
      3 C02        -4.1950   -1.5230    0.5930 C.2       1 8NU1        0.0000
      4 C03        -3.7390   -0.2400    0.5490 C.2       1 8NU1        0.0000
      5 C04        -2.3010    0.0820    0.8650 C.3       1 8NU1        0.0000
      6 C05        -1.4940    0.1430   -0.4330 C.3       1 8NU1        0.0000
      7 C07         0.5350   -0.6340    0.6330 C.3       1 8NU1        0.0000
      8 C08         1.9430   -0.2130    1.0620 C.3       1 8NU1        0.0000
      9 C09         2.7740    0.1140   -0.1820 C.3       1 8NU1        0.0000
     10 C10         2.0730    1.2180   -0.9790 C.3       1 8NU1        0.0000
     11 C11         0.6610    0.7560   -1.3480 C.3       1 8NU1        0.0000
     12 C12         4.1430    0.5850    0.2360 C.2       1 8NU1        0.0000
     13 C15         6.4230    0.7350    0.4890 C.2       1 8NU1        0.0000
     14 C16         5.4200   -0.0410   -0.1180 C.2       1 8NU1        0.0000
     15 C17         5.7700   -1.1610   -0.8760 C.2       1 8NU1        0.0000
     16 C18         7.0850   -1.4970   -1.0250 C.2       1 8NU1        0.0000
     17 C19         8.0800   -0.7330   -0.4260 C.2       1 8NU1        0.0000
     18 C21         7.7550    0.3770    0.3270 C.2       1 8NU1        0.0000
     19 C22        -4.6470    0.7770    0.1990 C.2       1 8NU1        0.0000
     20 C25        -6.8420    1.5580   -0.3900 C.3       1 8NU1        0.0000
     21 C26        -8.0940    1.0570   -1.1060 C.3       1 8NU1        0.0000
     22 C27        -8.6920   -0.0890   -0.2800 C.3       1 8NU1        0.0000
     23 C28        -7.7290   -1.2730   -0.3480 C.3       1 8NU1        0.0000
     24 C29        -6.3230   -0.8320   -0.0270 C.2       1 8NU1        0.0000
     25 F20         9.3770   -1.0800   -0.5830 F         1 8NU1        0.0000
     26 N06        -0.0930    0.4560   -0.1240 N.3       1 8NU1        0.0000
     27 N13         4.4080    1.6210    0.9700 N.2       1 8NU1        0.0000
     28 N24        -5.9380    0.4530   -0.0700 N.pl3     1 8NU1        0.0000
     29 N30        -5.4680   -1.7780    0.3010 N.2       1 8NU1        0.0000
     30 O14         5.8060    1.7410    1.1400 O.3       1 8NU1        0.0000
     31 O23        -4.2770    1.9380    0.1380 O.2       1 8NU1        0.0000
     32 H1         -3.8050   -3.5910    0.9420 H         1 8NU1        0.0000
     33 H2         -2.4370   -2.6830    0.2550 H         1 8NU1        0.0000
     34 H3         -2.8720   -2.4770    1.9690 H         1 8NU1        0.0000
     35 H4         -2.2480    1.0460    1.3720 H         1 8NU1        0.0000
     36 H5         -1.8900   -0.6920    1.5130 H         1 8NU1        0.0000
     37 H6         -1.5480   -0.8210   -0.9390 H         1 8NU1        0.0000
     38 H7         -1.9060    0.9170   -1.0810 H         1 8NU1        0.0000
     39 H8          0.5970   -1.5230    0.0060 H         1 8NU1        0.0000
     40 H9         -0.0630   -0.8530    1.5180 H         1 8NU1        0.0000
     41 H10         1.8810    0.6680    1.7000 H         1 8NU1        0.0000
     42 H11         2.4150   -1.0280    1.6110 H         1 8NU1        0.0000
     43 H12         2.8680   -0.7780   -0.8020 H         1 8NU1        0.0000
     44 H13         2.0130    2.1220   -0.3730 H         1 8NU1        0.0000
     45 H14         2.6370    1.4250   -1.8880 H         1 8NU1        0.0000
     46 H15         0.1540    1.5450   -1.9030 H         1 8NU1        0.0000
     47 H16         0.7220   -0.1400   -1.9660 H         1 8NU1        0.0000
     48 H17         5.0020   -1.7590   -1.3430 H         1 8NU1        0.0000
     49 H18         7.3540   -2.3630   -1.6110 H         1 8NU1        0.0000
     50 H19         8.5340    0.9660    0.7880 H         1 8NU1        0.0000
     51 H20        -6.3240    2.2700   -1.0330 H         1 8NU1        0.0000
     52 H21        -7.1350    2.0590    0.5330 H         1 8NU1        0.0000
     53 H22        -8.8180    1.8660   -1.1910 H         1 8NU1        0.0000
     54 H23        -7.8290    0.6950   -2.0990 H         1 8NU1        0.0000
     55 H24        -8.8140    0.2280    0.7550 H         1 8NU1        0.0000
     56 H25        -9.6580   -0.3760   -0.6950 H         1 8NU1        0.0000
     57 H26        -8.0410   -2.0310    0.3710 H         1 8NU1        0.0000
     58 H27        -7.7520   -1.6980   -1.3510 H         1 8NU1        0.0000
@<TRIPOS>BOND
     1    2   32 1
     2    2   33 1
     3    2   34 1
     4    2    3 1
     5    3   29 1
     6    3    4 2
     7    4    5 1
     8    5   35 1
     9    5   36 1
    10    5    6 1
    11    6   37 1
    12    6   38 1
    13    7   39 1
    14    7   40 1
    15    7    8 1
    16    8   41 1
    17    8   42 1
    18    8    9 1
    19    9   43 1
    20    9   10 1
    21   10   11 1
    22   10   44 1
    23   10   45 1
    24   11   26 1
    25   11   46 1
    26   11   47 1
    27    9   12 1
    28   12   14 1
    29   13   14 1
    30   14   15 2
    31   15   48 1
    32   15   16 1
    33   16   49 1
    34   16   17 2
    35   13   18 2
    36   17   18 1
    37   18   50 1
    38    4   19 1
    39   19   28 1
    40   20   21 1
    41   20   28 1
    42   20   51 1
    43   20   52 1
    44   21   22 1
    45   21   53 1
    46   21   54 1
    47   22   23 1
    48   22   55 1
    49   22   56 1
    50   23   57 1
    51   23   58 1
    52   23   24 1
    53   24   29 2
    54   17   25 1
    55    1   26 1
    56    6   26 1
    57    7   26 1
    58   12   27 2
    59   24   28 1
    60   13   30 1
    61   27   30 1
    62   19   31 2
@<TRIPOS>SUBSTRUCTURE
     1 8NU1        1 RESIDUE           4 A     8NU     0 ROOT
