# created with PyMOL 2.3.5
@<TRIPOS>MOLECULE
7MA
58 60 1 0 0
SMALL
USER_CHARGES


@<TRIPOS>ATOM
      1 C10        -4.4990    0.7870    0.8900 C.2       1 7MA1        0.0000
      2 C13        -0.2920   -1.2410   -0.4250 C.3       1 7MA1        0.0000
      3 C15         0.8320    0.9480   -0.1050 C.2       1 7MA1        0.0000
      4 C20         0.2790    1.4680   -1.2740 C.2       1 7MA1        0.0000
      5 C22         1.7150    5.7440    0.2670 C.3       1 7MA1        0.0000
      6 C26         3.4530   -1.0790    0.2240 C.2       1 7MA1        0.0000
      7 C28         5.7110   -0.3070    0.0240 C.2       1 7MA1        0.0000
      8 C32         2.4230   -2.5620   -1.5090 C.3       1 7MA1        0.0000
      9 C31         3.5830   -1.7670   -0.9680 C.2       1 7MA1        0.0000
     10 C30         4.7770   -1.7240   -1.6650 C.2       1 7MA1        0.0000
     11 C29         5.8400   -0.9940   -1.1680 C.2       1 7MA1        0.0000
     12 C27         4.5160   -0.3440    0.7170 C.2       1 7MA1        0.0000
     13 S23         1.9320   -1.1330    1.1110 S.O2      1 7MA1        0.0000
     14 O24         1.5780   -2.5050    1.2180 O.2       1 7MA1        0.0000
     15 O25         2.0940   -0.2820    2.2370 O.2       1 7MA1        0.0000
     16 N14         0.7800   -0.4270    0.1530 N.pl3     1 7MA1        0.0000
     17 C16         1.4390    1.8090    0.7960 C.2       1 7MA1        0.0000
     18 N17         1.4950    3.1060    0.5570 N.2       1 7MA1        0.0000
     19 C19         0.3580    2.8320   -1.4900 C.2       1 7MA1        0.0000
     20 C18         0.9810    3.6330   -0.5410 C.2       1 7MA1        0.0000
     21 O21         1.0630    4.9730   -0.7440 O.3       1 7MA1        0.0000
     22 C11        -1.5340   -1.1080    0.4180 C.2       1 7MA1        0.0000
     23 O12        -1.5240   -0.4020    1.4050 O.2       1 7MA1        0.0000
     24 N03        -2.6550   -1.7720    0.0760 N.pl3     1 7MA1        0.0000
     25 C02        -2.6670   -2.6250   -1.1150 C.3       1 7MA1        0.0000
     26 C01        -2.2490   -4.0450   -0.7300 C.3       1 7MA1        0.0000
     27 C04        -3.8620   -1.6430    0.8960 C.3       1 7MA1        0.0000
     28 C05        -4.6920   -0.4910    0.3890 C.2       1 7MA1        0.0000
     29 C09        -5.2860    1.8160    0.3950 C.2       1 7MA1        0.0000
     30 C08        -6.2260    1.5350   -0.5780 C.2       1 7MA1        0.0000
     31 N07        -6.3790    0.3080   -1.0350 N.2       1 7MA1        0.0000
     32 C06        -5.6550   -0.6970   -0.5800 C.2       1 7MA1        0.0000
     33 H1         -3.7570    0.9770    1.6510 H         1 7MA1        0.0000
     34 H2         -0.5020   -0.8990   -1.4380 H         1 7MA1        0.0000
     35 H3          0.0190   -2.2860   -0.4510 H         1 7MA1        0.0000
     36 H4         -0.2000    0.8210   -1.9950 H         1 7MA1        0.0000
     37 H5          2.7440    5.4000    0.3780 H         1 7MA1        0.0000
     38 H6          1.7120    6.7950   -0.0190 H         1 7MA1        0.0000
     39 H7          1.1880    5.6230    1.2130 H         1 7MA1        0.0000
     40 H8          6.5420    0.2630    0.4120 H         1 7MA1        0.0000
     41 H9          1.7570   -1.9020   -2.0650 H         1 7MA1        0.0000
     42 H10         2.7960   -3.3440   -2.1720 H         1 7MA1        0.0000
     43 H11         1.8770   -3.0170   -0.6830 H         1 7MA1        0.0000
     44 H12         4.8780   -2.2610   -2.5960 H         1 7MA1        0.0000
     45 H13         6.7750   -0.9650   -1.7100 H         1 7MA1        0.0000
     46 H14         4.4140    0.1920    1.6490 H         1 7MA1        0.0000
     47 H15         1.8700    1.4150    1.7040 H         1 7MA1        0.0000
     48 H16        -0.0600    3.2690   -2.3850 H         1 7MA1        0.0000
     49 H17        -3.6710   -2.6440   -1.5380 H         1 7MA1        0.0000
     50 H18        -1.9690   -2.2280   -1.8520 H         1 7MA1        0.0000
     51 H19        -2.9460   -4.4420    0.0080 H         1 7MA1        0.0000
     52 H20        -2.2570   -4.6800   -1.6160 H         1 7MA1        0.0000
     53 H21        -1.2440   -4.0260   -0.3070 H         1 7MA1        0.0000
     54 H22        -4.4430   -2.5630    0.8360 H         1 7MA1        0.0000
     55 H23        -3.5800   -1.4580    1.9330 H         1 7MA1        0.0000
     56 H24        -5.1660    2.8230    0.7660 H         1 7MA1        0.0000
     57 H25        -6.8430    2.3310   -0.9700 H         1 7MA1        0.0000
     58 H26        -5.8120   -1.6890   -0.9750 H         1 7MA1        0.0000
@<TRIPOS>BOND
     1    7   11 1
     2    7   12 2
     3   10   11 2
     4    6   12 1
     5    9   10 1
     6    6    9 2
     7    6   13 1
     8   13   14 2
     9    8    9 1
    10   13   16 1
    11   13   15 2
    12    2   16 1
    13    2   22 1
    14    4   19 2
    15    3    4 1
    16    3   16 1
    17   19   20 1
    18    3   17 2
    19   22   23 2
    20   22   24 1
    21   25   26 1
    22   24   25 1
    23   24   27 1
    24   18   20 2
    25   20   21 1
    26   17   18 1
    27   27   28 1
    28    5   21 1
    29   28   32 2
    30    1   28 1
    31   31   32 1
    32    1   29 2
    33   30   31 2
    34   29   30 1
    35    1   33 1
    36    2   34 1
    37    2   35 1
    38    4   36 1
    39    5   37 1
    40    5   38 1
    41    5   39 1
    42    7   40 1
    43    8   41 1
    44    8   42 1
    45    8   43 1
    46   10   44 1
    47   11   45 1
    48   12   46 1
    49   17   47 1
    50   19   48 1
    51   25   49 1
    52   25   50 1
    53   26   51 1
    54   26   52 1
    55   26   53 1
    56   27   54 1
    57   27   55 1
    58   29   56 1
    59   30   57 1
    60   32   58 1
@<TRIPOS>SUBSTRUCTURE
     1 7MA1        1 RESIDUE           4 A     7MA     0 ROOT
