# created with PyMOL 2.3.5
@<TRIPOS>MOLECULE
M3J
31 33 1 0 0
SMALL
USER_CHARGES


@<TRIPOS>ATOM
      1 H01         0.2900    1.2840    0.0000 H         1 M3J1        0.0000
      2 C10         5.1890    1.5260   -0.7060 C.2       1 M3J1        0.0000
      3 N12         0.7810   -1.7320   -0.1210 N.2       1 M3J1        0.0000
      4 C13        -0.4790   -1.2730   -0.0910 C.2       1 M3J1        0.0000
      5 C15        -2.8430   -1.6110   -0.1640 C.2       1 M3J1        0.0000
      6 C02         0.4390    0.9660    0.1690 C.2       1 M3J1        0.0000
      7 C04         1.7990   -0.9000   -0.0140 C.2       1 M3J1        0.0000
      8 C06         4.1830   -0.5500   -0.0540 C.2       1 M3J1        0.0000
      9 C07         5.3590   -0.9160    0.5880 C.2       1 M3J1        0.0000
     10 C08         6.4390   -0.0560    0.5900 C.2       1 M3J1        0.0000
     11 C09         6.3570    1.1610   -0.0610 C.2       1 M3J1        0.0000
     12 C11         4.1010    0.6760   -0.7020 C.2       1 M3J1        0.0000
     13 C14        -1.5820   -2.1290   -0.2010 C.2       1 M3J1        0.0000
     14 C16        -3.0520   -0.2430   -0.0180 C.2       1 M3J1        0.0000
     15 C18        -1.9990    0.6190    0.0920 C.2       1 M3J1        0.0000
     16 C19        -0.6930    0.1190    0.0580 C.2       1 M3J1        0.0000
     17 N01         0.2910    2.3280    0.3150 N.pl3     1 M3J1        0.0000
     18 N03         1.6420    0.4140    0.1280 N.2       1 M3J1        0.0000
     19 N05         3.0830   -1.4140   -0.0490 N.pl3     1 M3J1        0.0000
     20 BR1        -4.8180    0.4320    0.0290 Br        1 M3J1        0.0000
     21 H1          5.1260    2.4800   -1.2090 H         1 M3J1        0.0000
     22 H2         -3.6920   -2.2730   -0.2490 H         1 M3J1        0.0000
     23 H3          5.4250   -1.8690    1.0920 H         1 M3J1        0.0000
     24 H4          7.3540   -0.3400    1.0890 H         1 M3J1        0.0000
     25 H5          7.2060    1.8280   -0.0650 H         1 M3J1        0.0000
     26 H6          3.1880    0.9630   -1.2020 H         1 M3J1        0.0000
     27 H7         -1.4350   -3.1930   -0.3160 H         1 M3J1        0.0000
     28 H8         -2.1730    1.6790    0.2040 H         1 M3J1        0.0000
     29 H9         -0.5970    2.7200    0.3430 H         1 M3J1        0.0000
     30 H10         1.0740    2.8960    0.3900 H         1 M3J1        0.0000
     31 H11         3.2210   -2.3740   -0.0700 H         1 M3J1        0.0000
@<TRIPOS>BOND
     1    2   12 2
     2    2   21 1
     3    3    4 1
     4    4   13 2
     5    4   16 1
     6    5   14 2
     7    5   22 1
     8    6   16 1
     9    6   17 1
    10    3    7 2
    11    7   18 1
    12    8   19 1
    13    8    9 2
    14    9   23 1
    15    9   10 1
    16   10   24 1
    17    2   11 1
    18   10   11 2
    19   11   25 1
    20    8   12 1
    21   12   26 1
    22    5   13 1
    23   13   27 1
    24   14   20 1
    25   14   15 1
    26   15   28 1
    27   15   16 2
    28    1   17 1
    29   17   29 1
    30   17   30 1
    31    6   18 2
    32    7   19 1
    33   19   31 1
@<TRIPOS>SUBSTRUCTURE
     1 M3J1        1 RESIDUE           4 A     M3J     0 ROOT
