# created with PyMOL 2.3.5
@<TRIPOS>MOLECULE
CVD
57 60 1 0 0
SMALL
USER_CHARGES


@<TRIPOS>ATOM
      1 H01        -2.4110   -0.6740   -0.0630 H         1 CVD1        0.0000
      2 O1         -0.1010    0.0080   -0.6070 O.3       1 CVD1        0.0000
      3 C1          0.2020   -1.0140    0.3450 C.3       1 CVD1        0.0000
      4 C2          1.5290   -1.6790   -0.0260 C.3       1 CVD1        0.0000
      5 O2          2.5880   -0.7280    0.0910 O.3       1 CVD1        0.0000
      6 C3          3.8420   -1.1600   -0.2050 C.2       1 CVD1        0.0000
      7 C14         4.0500   -2.4710   -0.5990 C.2       1 CVD1        0.0000
      8 C13         5.3280   -2.9120   -0.9000 C.2       1 CVD1        0.0000
      9 C12         6.4060   -2.0560   -0.8130 C.2       1 CVD1        0.0000
     10 C6          6.2190   -0.7340   -0.4190 C.2       1 CVD1        0.0000
     11 C4          4.9260   -0.2830   -0.1190 C.2       1 CVD1        0.0000
     12 C5          5.0530    1.1380    0.2510 C.2       1 CVD1        0.0000
     13 C8          4.1380    2.1100    0.6470 C.2       1 CVD1        0.0000
     14 C11         4.5750    3.3860    0.9330 C.2       1 CVD1        0.0000
     15 C10         5.9200    3.7020    0.8280 C.2       1 CVD1        0.0000
     16 C9          6.8370    2.7490    0.4380 C.2       1 CVD1        0.0000
     17 C7          6.4150    1.4560    0.1450 C.2       1 CVD1        0.0000
     18 N1          7.0990    0.3190   -0.2490 N.pl3     1 CVD1        0.0000
     19 C15        -0.9130   -2.0610    0.3410 C.3       1 CVD1        0.0000
     20 N2         -2.1870   -1.4220    0.6970 N.3       1 CVD1        0.0000
     21 C16        -3.2830   -2.4000    0.7030 C.3       1 CVD1        0.0000
     22 C17        -4.5900   -1.6990    1.0770 C.3       1 CVD1        0.0000
     23 O3         -4.9320   -0.7540    0.0610 O.3       1 CVD1        0.0000
     24 C18        -6.0750   -0.0410    0.2410 C.2       1 CVD1        0.0000
     25 C23        -6.8510   -0.2440    1.3710 C.2       1 CVD1        0.0000
     26 C22        -8.0120    0.4820    1.5530 C.2       1 CVD1        0.0000
     27 C21        -8.4040    1.4130    0.6080 C.2       1 CVD1        0.0000
     28 C20        -7.6350    1.6220   -0.5210 C.2       1 CVD1        0.0000
     29 C19        -6.4660    0.9010   -0.7070 C.2       1 CVD1        0.0000
     30 O4         -5.7050    1.1090   -1.8150 O.3       1 CVD1        0.0000
     31 C24        -6.1680    2.0900   -2.7440 C.3       1 CVD1        0.0000
     32 H1         -0.1870   -0.3140   -1.5150 H         1 CVD1        0.0000
     33 HA          0.2820   -0.5720    1.3380 H         1 CVD1        0.0000
     34 H21C        1.7160   -2.5160    0.6470 H         1 CVD1        0.0000
     35 H22C        1.4790   -2.0430   -1.0520 H         1 CVD1        0.0000
     36 H151       -0.9930   -2.5030   -0.6530 H         1 CVD1        0.0000
     37 H152       -0.6820   -2.8410    1.0670 H         1 CVD1        0.0000
     38 H14         3.2140   -3.1510   -0.6710 H         1 CVD1        0.0000
     39 H13         5.4820   -3.9360   -1.2070 H         1 CVD1        0.0000
     40 H12         7.3970   -2.4130   -1.0500 H         1 CVD1        0.0000
     41 H8          3.0890    1.8660    0.7280 H         1 CVD1        0.0000
     42 H11         3.8670    4.1410    1.2390 H         1 CVD1        0.0000
     43 H10         6.2540    4.7050    1.0540 H         1 CVD1        0.0000
     44 H91         7.8830    3.0060    0.3600 H         1 CVD1        0.0000
     45 H2         -2.1180   -0.9500    1.5860 H         1 CVD1        0.0000
     46 H161       -3.3790   -2.8440   -0.2880 H         1 CVD1        0.0000
     47 H162       -3.0680   -3.1820    1.4320 H         1 CVD1        0.0000
     48 H171       -5.3860   -2.4380    1.1690 H         1 CVD1        0.0000
     49 H172       -4.4650   -1.1800    2.0280 H         1 CVD1        0.0000
     50 H23        -6.5470   -0.9710    2.1100 H         1 CVD1        0.0000
     51 H22        -8.6160    0.3220    2.4340 H         1 CVD1        0.0000
     52 H21        -9.3120    1.9790    0.7530 H         1 CVD1        0.0000
     53 H20        -7.9430    2.3500   -1.2570 H         1 CVD1        0.0000
     54 H241       -7.1530    1.8050   -3.1140 H         1 CVD1        0.0000
     55 H242       -6.2330    3.0590   -2.2480 H         1 CVD1        0.0000
     56 H243       -5.4710    2.1560   -3.5800 H         1 CVD1        0.0000
     57 HN1         8.0570    0.2710   -0.3960 H         1 CVD1        0.0000
@<TRIPOS>BOND
     1    2    3 1
     2    2   32 1
     3    3    4 1
     4    3   19 1
     5    3   33 1
     6    4    5 1
     7    4   34 1
     8    4   35 1
     9    5    6 1
    10    6    7 1
    11    6   11 2
    12    7    8 2
    13    7   38 1
    14    8    9 1
    15    8   39 1
    16    9   10 2
    17    9   40 1
    18   10   11 1
    19   10   18 1
    20   11   12 1
    21   12   13 2
    22   12   17 1
    23   13   14 1
    24   13   41 1
    25   14   15 2
    26   14   42 1
    27   15   16 1
    28   15   43 1
    29   16   17 2
    30   16   44 1
    31   17   18 1
    32   18   57 1
    33   19   20 1
    34   19   36 1
    35   19   37 1
    36    1   20 1
    37   20   21 1
    38   20   45 1
    39   21   22 1
    40   21   46 1
    41   21   47 1
    42   22   23 1
    43   22   48 1
    44   22   49 1
    45   23   24 1
    46   24   25 1
    47   24   29 2
    48   25   26 2
    49   25   50 1
    50   26   27 1
    51   26   51 1
    52   27   28 2
    53   27   52 1
    54   28   29 1
    55   28   53 1
    56   29   30 1
    57   30   31 1
    58   31   54 1
    59   31   55 1
    60   31   56 1
@<TRIPOS>SUBSTRUCTURE
     1 CVD1        1 RESIDUE           4 A     CVD     0 ROOT
