# created with PyMOL 2.3.5
@<TRIPOS>MOLECULE
3C0
47 50 1 0 0
SMALL
USER_CHARGES


@<TRIPOS>ATOM
      1 C10         1.9230    1.8570   -1.0270 C.3       1 3C01        0.0000
      2 C13        -1.2320   -1.1140   -0.8210 C.3       1 3C01        0.0000
      3 C15        -3.2560    0.3470   -0.8370 C.3       1 3C01        0.0000
      4 C17        -1.9480    0.6240    1.2140 C.3       1 3C01        0.0000
      5 C20        -4.8980    0.2890    0.9540 C.3       1 3C01        0.0000
      6 C21        -4.3900   -1.7280   -0.2730 C.3       1 3C01        0.0000
      7 C22        -2.7000   -0.7260    1.1610 C.3       1 3C01        0.0000
      8 N19        -3.8510   -0.4680    0.2560 N.4       1 3C01        0.0000
      9 C14        -2.3850   -0.5940   -1.6840 C.3       1 3C01        0.0000
     10 C16        -2.3150    1.3330   -0.1060 C.3       1 3C01        0.0000
     11 O18        -2.7220    1.8240    1.1720 O.3       1 3C01        0.0000
     12 C23        -1.7880   -1.7450    0.4590 C.3       1 3C01        0.0000
     13 O12        -0.3540   -0.0100   -0.4720 O.3       1 3C01        0.0000
     14 C02         0.9440   -0.2990   -0.2890 C.2       1 3C01        0.0000
     15 O01         1.3340   -1.4350   -0.4160 O.co2     1 3C01        0.0000
     16 C03         1.9140    0.7950    0.0750 C.3       1 3C01        0.0000
     17 O11         0.6440    2.4910   -1.0870 O.3       1 3C01        0.0000
     18 C04         3.2960    0.2130    0.2220 C.2       1 3C01        0.0000
     19 C05         3.9640    0.3130    1.4280 C.2       1 3C01        0.0000
     20 C06         5.2320   -0.2210    1.5630 C.2       1 3C01        0.0000
     21 C07         5.8320   -0.8560    0.4910 C.2       1 3C01        0.0000
     22 C08         5.1640   -0.9570   -0.7150 C.2       1 3C01        0.0000
     23 C09         3.8940   -0.4280   -0.8480 C.2       1 3C01        0.0000
     24 H1          2.6880    2.6020   -0.8080 H         1 3C01        0.0000
     25 H2          2.1400    1.3840   -1.9850 H         1 3C01        0.0000
     26 H3         -0.6690   -1.8620   -1.3790 H         1 3C01        0.0000
     27 H4         -4.0150    0.8530   -1.4340 H         1 3C01        0.0000
     28 H5         -0.9380    0.6310    1.6240 H         1 3C01        0.0000
     29 H6         -5.6140    0.6740    0.2280 H         1 3C01        0.0000
     30 H7         -5.4110   -0.3650    1.6590 H         1 3C01        0.0000
     31 H8         -4.4460    1.1210    1.4940 H         1 3C01        0.0000
     32 H9         -3.5980   -2.2750   -0.7860 H         1 3C01        0.0000
     33 H10        -4.7750   -2.3320    0.5490 H         1 3C01        0.0000
     34 H11        -5.1960   -1.5130   -0.9740 H         1 3C01        0.0000
     35 H12        -3.0090   -1.0640    2.1500 H         1 3C01        0.0000
     36 H13        -1.9840   -0.0500   -2.5390 H         1 3C01        0.0000
     37 H14        -2.9860   -1.4340   -2.0330 H         1 3C01        0.0000
     38 H15        -1.5860    1.8800   -0.7030 H         1 3C01        0.0000
     39 H16        -2.3620   -2.6360    0.2060 H         1 3C01        0.0000
     40 H17        -0.9640   -2.0150    1.1200 H         1 3C01        0.0000
     41 H18         1.6110    1.2520    1.0170 H         1 3C01        0.0000
     42 H19         0.5770    3.1770   -1.7660 H         1 3C01        0.0000
     43 H20         3.4960    0.8100    2.2650 H         1 3C01        0.0000
     44 H21         5.7540   -0.1420    2.5050 H         1 3C01        0.0000
     45 H22         6.8230   -1.2730    0.5960 H         1 3C01        0.0000
     46 H23         5.6320   -1.4530   -1.5520 H         1 3C01        0.0000
     47 H24         3.3710   -0.5070   -1.7900 H         1 3C01        0.0000
@<TRIPOS>BOND
     1   20   21 2
     2   21   22 1
     3   19   20 1
     4   10   11 1
     5    4   11 1
     6   22   23 2
     7   18   19 2
     8    4   10 1
     9    3   10 1
    10    4    7 1
    11    5    8 1
    12   18   23 1
    13   16   18 1
    14    3    8 1
    15    3    9 1
    16    7    8 1
    17    6    8 1
    18    7   12 1
    19    1   16 1
    20   14   16 1
    21    2   13 1
    22   13   14 1
    23    2    9 1
    24    2   12 1
    25    1   17 1
    26   14   15 2
    27    1   24 1
    28    1   25 1
    29    2   26 1
    30    3   27 1
    31    4   28 1
    32    5   29 1
    33    5   30 1
    34    5   31 1
    35    6   32 1
    36    6   33 1
    37    6   34 1
    38    7   35 1
    39    9   36 1
    40    9   37 1
    41   10   38 1
    42   12   39 1
    43   12   40 1
    44   16   41 1
    45   17   42 1
    46   19   43 1
    47   20   44 1
    48   21   45 1
    49   22   46 1
    50   23   47 1
@<TRIPOS>SUBSTRUCTURE
     1 3C01        1 RESIDUE           4 A     3C0     0 ROOT
