@<TRIPOS>MOLECULE
GNO
34 37 1 0 0
SMALL
NO_CHARGES


@<TRIPOS>ATOM
      1 O3         80.9410  117.9090  124.9220 O.3       1 GNO437      0.0000
      2 C1         84.7580  114.4490  122.1470 C.3       1 GNO437      0.0000
      3 C10        87.3280  112.3500  119.3010 C.ar      1 GNO437      0.0000
      4 C11        87.4500  113.8620  119.4680 C.ar      1 GNO437      0.0000
      5 C12        86.4490  111.6780  120.0120 C.ar      1 GNO437      0.0000
      6 C13        81.8850  113.7830  118.6020 C.ar      1 GNO437      0.0000
      7 C14        82.0750  117.9850  124.1080 C.ar      1 GNO437      0.0000
      8 C15        82.5600  111.7660  119.6400 C.ar      1 GNO437      0.0000
      9 C16        84.2420  119.0620  123.6420 C.ar      1 GNO437      0.0000
     10 C17        83.1760  118.9950  124.4110 C.ar      1 GNO437      0.0000
     11 C18        81.9190  113.1230  117.4180 C.ar      1 GNO437      0.0000
     12 C19        82.2710  111.8000  117.3860 C.ar      1 GNO437      0.0000
     13 C2         83.5450  116.3110  120.9940 C.3       1 GNO437      0.0000
     14 C20        89.0130  112.3370  117.5460 C.ar      1 GNO437      0.0000
     15 C21        89.6660  111.3910  116.7860 C.ar      1 GNO437      0.0000
     16 C22        80.3830  119.1500  125.2410 C.3       1 GNO437      0.0000
     17 C23        89.0970  110.1080  117.2680 C.ar      1 GNO437      0.0000
     18 C24        78.8980  118.9700  125.5480 C.2       1 GNO437      0.0000
     19 C3         85.6540  113.7150  121.1500 C.ar      1 GNO437      0.0000
     20 C4         83.4260  117.2520  122.1870 C.ar      1 GNO437      0.0000
     21 C5         82.2100  113.1140  119.7500 C.ar      1 GNO437      0.0000
     22 C6         86.6760  114.4930  120.3250 C.ar      1 GNO437      0.0000
     23 C7         85.5520  112.4120  121.0060 C.ar      1 GNO437      0.0000
     24 C8         82.1910  117.1780  123.0780 C.ar      1 GNO437      0.0000
     25 C9         84.3770  118.1240  122.4450 C.ar      1 GNO437      0.0000
     26 N1         83.5730  114.9460  121.4790 N.pl3     1 GNO437      0.0000
     27 N2         88.1790  111.6550  118.3560 N.ar      1 GNO437      0.0000
     28 N3         82.5940  111.1000  118.4720 N.ar      1 GNO437      0.0000
     29 N4         88.1570  110.3140  118.2650 N.ar      1 GNO437      0.0000
     30 O1         80.9540  114.7600  121.4930 O.2       1 GNO437      0.0000
     31 O2         82.0660  113.0280  122.4580 O.2       1 GNO437      0.0000
     32 O4         78.5400  118.2870  126.5440 O.co2     1 GNO437      0.0000
     33 O5         78.0320  119.5010  124.8050 O.co2     1 GNO437      0.0000
     34 S1         82.1800  113.9720  121.3440 S.o2      1 GNO437      0.0000
@<TRIPOS>BOND
     1    1    7 1
     2    1   16 1
     3    2   19 1
     4    2   26 1
     5    3    4 ar
     6    3    5 ar
     7    3   27 1
     8    4   22 ar
     9    5   23 ar
    10    6   11 ar
    11    6   21 ar
    12    7   10 ar
    13    7   24 ar
    14    8   21 ar
    15    8   28 ar
    16    9   10 ar
    17    9   25 ar
    18   11   12 ar
    19   12   28 ar
    20   13   20 1
    21   13   26 1
    22   14   15 ar
    23   14   27 ar
    24   15   17 ar
    25   16   18 1
    26   17   29 ar
    27   18   32 2
    28   18   33 2
    29   19   22 ar
    30   19   23 ar
    31   20   24 ar
    32   20   25 ar
    33   21   34 1
    34   26   34 1
    35   27   29 ar
    36   30   34 2
    37   31   34 2
@<TRIPOS>SUBSTRUCTURE
     1 GNO437      1 RESIDUE           4 R     GNO     0 ROOT
