# created with PyMOL 2.3.5
@<TRIPOS>MOLECULE
PEF
121 120 1               
SMALL
USER_CHARGES
@<TRIPOS>ATOM
1	  C2	-3.579	2.064	-0.906	C.3	1	PEF0	0.000	
2	  C1	-4.463	0.840	-0.656	C.3	1	PEF0	0.000	
3	   N	-3.935	-4.087	3.615	N.3	1	PEF0	0.000	
4	  C3	-3.215	2.712	0.431	C.3	1	PEF0	0.000	
5	  C4	-4.920	-3.545	1.439	C.3	1	PEF0	0.000	
6	  C5	-4.277	-4.637	2.297	C.3	1	PEF0	0.000	
7	 C10	-2.328	1.633	-2.933	C.2	1	PEF0	0.000	
8	 C11	-1.069	1.207	-3.644	C.3	1	PEF0	0.000	
9	 C12	-1.291	1.272	-5.156	C.3	1	PEF0	0.000	
10	 C13	-0.014	0.839	-5.878	C.3	1	PEF0	0.000	
11	 C14	-0.236	0.904	-7.390	C.3	1	PEF0	0.000	
12	 C15	1.041	0.472	-8.112	C.3	1	PEF0	0.000	
13	 C16	0.819	0.536	-9.625	C.3	1	PEF0	0.000	
14	 C17	2.097	0.104	-10.347	C.3	1	PEF0	0.000	
15	 C18	1.875	0.169	-11.859	C.3	1	PEF0	0.000	
16	 C19	3.153	-0.263	-12.581	C.3	1	PEF0	0.000	
17	 C20	2.931	-0.198	-14.094	C.3	1	PEF0	0.000	
18	 C21	4.209	-0.630	-14.816	C.3	1	PEF0	0.000	
19	 C22	3.987	-0.566	-16.328	C.3	1	PEF0	0.000	
20	 C23	5.265	-0.998	-17.050	C.3	1	PEF0	0.000	
21	 C24	5.043	-0.933	-18.562	C.3	1	PEF0	0.000	
22	 C25	6.320	-1.366	-19.284	C.3	1	PEF0	0.000	
23	 C30	-2.073	2.104	2.477	C.2	1	PEF0	0.000	
24	 C31	-1.326	1.111	3.329	C.3	1	PEF0	0.000	
25	 C32	-0.962	1.758	4.667	C.3	1	PEF0	0.000	
26	 C33	-0.204	0.749	5.532	C.3	1	PEF0	0.000	
27	 C34	0.159	1.396	6.870	C.3	1	PEF0	0.000	
28	 C35	0.917	0.388	7.735	C.3	1	PEF0	0.000	
29	 C36	1.281	1.035	9.072	C.3	1	PEF0	0.000	
30	 C37	2.039	0.026	9.937	C.3	1	PEF0	0.000	
31	 C38	2.404	0.673	11.275	C.3	1	PEF0	0.000	
32	 C39	3.162	-0.335	12.140	C.3	1	PEF0	0.000	
33	 C40	3.526	0.312	13.478	C.3	1	PEF0	0.000	
34	 C41	4.284	-0.696	14.343	C.3	1	PEF0	0.000	
35	 C42	4.648	-0.049	15.681	C.3	1	PEF0	0.000	
36	 C43	5.406	-1.058	16.546	C.3	1	PEF0	0.000	
37	 C44	5.770	-0.410	17.883	C.3	1	PEF0	0.000	
38	 C45	6.529	-1.419	18.749	C.3	1	PEF0	0.000	
39	  O4	-3.303	1.955	-3.570	O.co2	1	PEF0	0.000	
40	  O5	-2.292	3.216	2.897	O.co2	1	PEF0	0.000	
41	  O2	-2.366	1.654	-1.591	O.3	1	PEF0	0.000	
42	  O3	-2.496	1.754	1.252	O.3	1	PEF0	0.000	
43	 O1P	-5.972	-0.902	1.053	O.co2	1	PEF0	0.000	
44	 O2P	-5.118	-1.998	-1.054	O.3	1	PEF0	0.000	
45	 O3P	-3.755	-0.101	0.151	O.3	1	PEF0	0.000	
46	 O4P	-4.001	-2.463	1.279	O.3	1	PEF0	0.000	
47	   P	-4.738	-1.356	0.372	P.3	1	PEF0	0.000	
48	 H21	-4.119	2.783	-1.522	 H	1	PEF0	0.000	
49	 H11	-5.373	1.148	-0.142	 H	1	PEF0	0.000	
50	 H12	-4.722	0.379	-1.609	 H	1	PEF0	0.000	
51	 HN1	-3.516	-4.838	4.143	 H	1	PEF0	0.000	
52	 HN2	-3.211	-3.400	3.464	 H	1	PEF0	0.000	
53	 H31	-4.125	3.020	0.945	 H	1	PEF0	0.000	
54	 H32	-2.585	3.583	0.253	 H	1	PEF0	0.000	
55	 H41	-5.824	-3.185	1.928	 H	1	PEF0	0.000	
56	 H42	-5.173	-3.954	0.461	 H	1	PEF0	0.000	
57	 H51	-4.978	-5.463	2.419	 H	1	PEF0	0.000	
58	 H52	-3.372	-4.998	1.808	 H	1	PEF0	0.000	
59	H112	-0.253	1.874	-3.367	 H	1	PEF0	0.000	
60	H111	-0.818	0.186	-3.357	 H	1	PEF0	0.000	
61	H122	-2.108	0.605	-5.432	 H	1	PEF0	0.000	
62	H121	-1.543	2.292	-5.443	 H	1	PEF0	0.000	
63	H132	0.802	1.506	-5.602	 H	1	PEF0	0.000	
64	H131	0.237	-0.181	-5.591	 H	1	PEF0	0.000	
65	H142	-1.052	0.237	-7.667	 H	1	PEF0	0.000	
66	H141	-0.487	1.925	-7.677	 H	1	PEF0	0.000	
67	H152	1.858	1.139	-7.836	 H	1	PEF0	0.000	
68	H151	1.293	-0.548	-7.825	 H	1	PEF0	0.000	
69	H162	0.003	-0.130	-9.901	 H	1	PEF0	0.000	
70	H161	0.567	1.557	-9.912	 H	1	PEF0	0.000	
71	H172	2.914	0.771	-10.071	 H	1	PEF0	0.000	
72	H171	2.349	-0.916	-10.060	 H	1	PEF0	0.000	
73	H182	1.058	-0.497	-12.135	 H	1	PEF0	0.000	
74	H181	1.623	1.190	-12.146	 H	1	PEF0	0.000	
75	H192	3.970	0.403	-12.305	 H	1	PEF0	0.000	
76	H191	3.405	-1.284	-12.294	 H	1	PEF0	0.000	
77	H202	2.114	-0.865	-14.370	 H	1	PEF0	0.000	
78	H201	2.679	0.822	-14.381	 H	1	PEF0	0.000	
79	H212	5.025	0.036	-14.539	 H	1	PEF0	0.000	
80	H211	4.460	-1.651	-14.529	 H	1	PEF0	0.000	
81	H222	3.170	-1.233	-16.604	 H	1	PEF0	0.000	
82	H221	3.735	0.454	-16.615	 H	1	PEF0	0.000	
83	H232	6.081	-0.331	-16.774	 H	1	PEF0	0.000	
84	H231	5.516	-2.019	-16.763	 H	1	PEF0	0.000	
85	H242	4.226	-1.600	-18.839	 H	1	PEF0	0.000	
86	H241	4.791	0.087	-18.849	 H	1	PEF0	0.000	
87	H252	6.162	-1.320	-20.362	 H	1	PEF0	0.000	
88	H251	7.137	-0.699	-19.008	 H	1	PEF0	0.000	
89	H253	6.572	-2.387	-18.997	 H	1	PEF0	0.000	
90	H312	-0.416	0.803	2.815	 H	1	PEF0	0.000	
91	H311	-1.956	0.239	3.507	 H	1	PEF0	0.000	
92	H322	-1.873	2.066	5.181	 H	1	PEF0	0.000	
93	H321	-0.333	2.630	4.489	 H	1	PEF0	0.000	
94	H332	0.705	0.441	5.018	 H	1	PEF0	0.000	
95	H331	-0.834	-0.122	5.710	 H	1	PEF0	0.000	
96	H342	-0.750	1.704	7.384	 H	1	PEF0	0.000	
97	H341	0.789	2.268	6.692	 H	1	PEF0	0.000	
98	H352	1.828	0.080	7.220	 H	1	PEF0	0.000	
99	H351	0.288	-0.483	7.912	 H	1	PEF0	0.000	
100	H362	0.371	1.343	9.587	 H	1	PEF0	0.000	
101	H361	1.911	1.907	8.895	 H	1	PEF0	0.000	
102	H372	2.950	-0.281	9.423	 H	1	PEF0	0.000	
103	H371	1.410	-0.845	10.115	 H	1	PEF0	0.000	
104	H382	1.493	0.981	11.790	 H	1	PEF0	0.000	
105	H381	3.033	1.545	11.098	 H	1	PEF0	0.000	
106	H392	4.072	-0.643	11.626	 H	1	PEF0	0.000	
107	H391	2.532	-1.206	12.318	 H	1	PEF0	0.000	
108	H402	2.615	0.620	13.992	 H	1	PEF0	0.000	
109	H401	4.155	1.184	13.300	 H	1	PEF0	0.000	
110	H412	5.194	-1.004	13.829	 H	1	PEF0	0.000	
111	H411	3.654	-1.568	14.521	 H	1	PEF0	0.000	
112	H422	3.738	0.258	16.195	 H	1	PEF0	0.000	
113	H421	5.278	0.822	15.503	 H	1	PEF0	0.000	
114	H432	6.317	-1.366	16.031	 H	1	PEF0	0.000	
115	H431	4.777	-1.930	16.723	 H	1	PEF0	0.000	
116	H442	4.860	-0.102	18.398	 H	1	PEF0	0.000	
117	H441	6.400	0.461	17.706	 H	1	PEF0	0.000	
118	H452	6.788	-0.958	19.702	 H	1	PEF0	0.000	
119	H451	5.899	-2.291	18.926	 H	1	PEF0	0.000	
120	H453	7.439	-1.727	18.234	 H	1	PEF0	0.000	
121	HOP2	-4.289	-2.280	-1.463	 H	1	PEF0	0.000	
@<TRIPOS>BOND
1 1 2 1
2 1 4 1
3 1 41 1
4 1 48 1
5 2 45 1
6 2 49 1
7 2 50 1
8 3 6 1
9 3 51 1
10 3 52 1
11 4 42 1
12 4 53 1
13 4 54 1
14 5 6 1
15 5 46 1
16 5 55 1
17 5 56 1
18 6 57 1
19 6 58 1
20 7 8 1
21 7 39 2
22 7 41 1
23 8 9 1
24 8 59 1
25 8 60 1
26 9 10 1
27 9 61 1
28 9 62 1
29 10 11 1
30 10 63 1
31 10 64 1
32 11 12 1
33 11 65 1
34 11 66 1
35 12 13 1
36 12 67 1
37 12 68 1
38 13 14 1
39 13 69 1
40 13 70 1
41 14 15 1
42 14 71 1
43 14 72 1
44 15 16 1
45 15 73 1
46 15 74 1
47 16 17 1
48 16 75 1
49 16 76 1
50 17 18 1
51 17 77 1
52 17 78 1
53 18 19 1
54 18 79 1
55 18 80 1
56 19 20 1
57 19 81 1
58 19 82 1
59 20 21 1
60 20 83 1
61 20 84 1
62 21 22 1
63 21 85 1
64 21 86 1
65 22 87 1
66 22 88 1
67 22 89 1
68 23 24 1
69 23 40 2
70 23 42 1
71 24 25 1
72 24 90 1
73 24 91 1
74 25 26 1
75 25 92 1
76 25 93 1
77 26 27 1
78 26 94 1
79 26 95 1
80 27 28 1
81 27 96 1
82 27 97 1
83 28 29 1
84 28 98 1
85 28 99 1
86 29 30 1
87 29 100 1
88 29 101 1
89 30 31 1
90 30 102 1
91 30 103 1
92 31 32 1
93 31 104 1
94 31 105 1
95 32 33 1
96 32 106 1
97 32 107 1
98 33 34 1
99 33 108 1
100 33 109 1
101 34 35 1
102 34 110 1
103 34 111 1
104 35 36 1
105 35 112 1
106 35 113 1
107 36 37 1
108 36 114 1
109 36 115 1
110 37 38 1
111 37 116 1
112 37 117 1
113 38 118 1
114 38 119 1
115 38 120 1
116 43 47 2
117 44 47 1
118 44 121 1
119 45 47 1
120 46 47 1
@<TRIPOS>SUBSTRUCTURE
1	PEF0	1	GROUP	1 ****	PEF
