# created with PyMOL 2.3.5
@<TRIPOS>MOLECULE
WHJ
51 53 1                 
SMALL
USER_CHARGES
@<TRIPOS>ATOM
1	  O1	3.231	-4.087	-0.547	O.2	1	WHJ0	0.000	
2	  C9	3.009	-2.916	-0.293	C.2	1	WHJ0	0.000	
3	  N1	4.010	-2.023	-0.393	N.pl3	1	WHJ0	0.000	
4	  C7	3.800	-0.688	-0.115	C.2	1	WHJ0	0.000	
5	  C6	4.838	0.240	-0.219	C.2	1	WHJ0	0.000	
6	  O2	6.080	-0.164	-0.598	O.3	1	WHJ0	0.000	
7	  C5	4.596	1.570	0.066	C.2	1	WHJ0	0.000	
8	  C4	3.332	1.992	0.454	C.2	1	WHJ0	0.000	
9	  C8	1.708	-2.529	0.092	C.2	1	WHJ0	0.000	
10	  C1	1.438	-1.231	0.378	C.2	1	WHJ0	0.000	
11	  C2	2.522	-0.252	0.278	C.2	1	WHJ0	0.000	
12	  C3	2.303	1.101	0.561	C.2	1	WHJ0	0.000	
13	 C10	0.936	1.573	0.984	C.3	1	WHJ0	0.000	
14	  O4	1.062	2.773	1.750	O.3	1	WHJ0	0.000	
15	 C11	0.085	1.848	-0.257	C.3	1	WHJ0	0.000	
16	  N2	-1.248	2.308	0.155	N.3	1	WHJ0	0.000	
17	 C12	-2.095	2.582	-1.014	C.3	1	WHJ0	0.000	
18	 C13	-1.830	4.004	-1.513	C.3	1	WHJ0	0.000	
19	 C14	-3.567	2.445	-0.621	C.3	1	WHJ0	0.000	
20	 C15	-3.856	1.015	-0.246	C.2	1	WHJ0	0.000	
21	 C20	-3.706	0.601	1.065	C.2	1	WHJ0	0.000	
22	 C19	-3.970	-0.710	1.411	C.2	1	WHJ0	0.000	
23	 C18	-4.386	-1.612	0.442	C.2	1	WHJ0	0.000	
24	  O3	-4.647	-2.902	0.780	O.3	1	WHJ0	0.000	
25	 C21	-5.071	-3.775	-0.269	C.3	1	WHJ0	0.000	
26	 C17	-4.536	-1.194	-0.872	C.2	1	WHJ0	0.000	
27	 C16	-4.276	0.119	-1.212	C.2	1	WHJ0	0.000	
28	  H1	4.892	-2.322	-0.664	 H	1	WHJ0	0.000	
29	  H8	0.924	-3.269	0.159	 H	1	WHJ0	0.000	
30	  H2	6.227	-0.138	-1.553	 H	1	WHJ0	0.000	
31	  H5	5.399	2.288	-0.014	 H	1	WHJ0	0.000	
32	  H4	3.161	3.036	0.674	 H	1	WHJ0	0.000	
33	  HA	0.445	-0.927	0.673	 H	1	WHJ0	0.000	
34	 H10	0.457	0.804	1.590	 H	1	WHJ0	0.000	
35	  HB	1.481	3.502	1.273	 H	1	WHJ0	0.000	
36	H111	0.564	2.617	-0.863	 H	1	WHJ0	0.000	
37	H112	-0.011	0.933	-0.842	 H	1	WHJ0	0.000	
38	  HC	-1.687	1.640	0.770	 H	1	WHJ0	0.000	
39	 H12	-1.863	1.870	-1.806	 H	1	WHJ0	0.000	
40	H131	-2.459	4.208	-2.380	 H	1	WHJ0	0.000	
41	H132	-2.062	4.716	-0.721	 H	1	WHJ0	0.000	
42	H133	-0.781	4.102	-1.793	 H	1	WHJ0	0.000	
43	H141	-3.777	3.093	0.230	 H	1	WHJ0	0.000	
44	H142	-4.196	2.735	-1.462	 H	1	WHJ0	0.000	
45	 H20	-3.382	1.303	1.819	 H	1	WHJ0	0.000	
46	 H16	-4.397	0.446	-2.234	 H	1	WHJ0	0.000	
47	 H19	-3.852	-1.033	2.435	 H	1	WHJ0	0.000	
48	 H17	-4.859	-1.894	-1.628	 H	1	WHJ0	0.000	
49	H211	-5.994	-3.395	-0.707	 H	1	WHJ0	0.000	
50	H212	-4.298	-3.823	-1.036	 H	1	WHJ0	0.000	
51	H213	-5.244	-4.772	0.135	 H	1	WHJ0	0.000	
@<TRIPOS>BOND
1 1 2 2
2 2 3 1
3 2 9 1
4 3 4 1
5 4 5 1
6 4 11 2
7 5 6 1
8 5 7 2
9 7 8 1
10 8 12 2
11 9 10 2
12 10 11 1
13 11 12 1
14 12 13 1
15 13 14 1
16 13 15 1
17 15 16 1
18 16 17 1
19 17 18 1
20 17 19 1
21 19 20 1
22 20 21 1
23 20 27 2
24 21 22 2
25 22 23 1
26 23 24 1
27 23 26 2
28 24 25 1
29 26 27 1
30 3 28 1
31 9 29 1
32 6 30 1
33 7 31 1
34 8 32 1
35 10 33 1
36 13 34 1
37 14 35 1
38 15 36 1
39 15 37 1
40 16 38 1
41 17 39 1
42 18 40 1
43 18 41 1
44 18 42 1
45 19 43 1
46 19 44 1
47 21 45 1
48 27 46 1
49 22 47 1
50 26 48 1
51 25 49 1
52 25 50 1
53 25 51 1
@<TRIPOS>SUBSTRUCTURE
1	WHJ0	1	GROUP	1 ****	WHJ
