# created with PyMOL 2.3.5
@<TRIPOS>MOLECULE
SIN
14 13 1                 
SMALL
USER_CHARGES
@<TRIPOS>ATOM
1	  C1	1.903	-0.044	0.002	C.2	1	SIN0	0.000	
2	  O1	2.038	-1.245	0.001	O.co2	1	SIN0	0.000	
3	  O2	2.984	0.753	-0.002	O.3	1	SIN0	0.000	
4	  C2	0.522	0.559	0.002	C.3	1	SIN0	0.000	
5	  C3	-0.522	-0.559	0.000	C.3	1	SIN0	0.000	
6	  C4	-1.903	0.044	-0.000	C.2	1	SIN0	0.000	
7	  O3	-2.038	1.245	0.001	O.co2	1	SIN0	0.000	
8	  O4	-2.984	-0.753	-0.002	O.3	1	SIN0	0.000	
9	 HO2	3.848	0.320	-0.006	 H	1	SIN0	0.000	
10	 H21	0.394	1.174	0.892	 H	1	SIN0	0.000	
11	 H22	0.396	1.176	-0.888	 H	1	SIN0	0.000	
12	 H31	-0.394	-1.174	-0.890	 H	1	SIN0	0.000	
13	 H32	-0.396	-1.176	0.890	 H	1	SIN0	0.000	
14	 HO4	-3.848	-0.320	-0.002	 H	1	SIN0	0.000	
@<TRIPOS>BOND
1 1 2 2
2 1 3 1
3 1 4 1
4 3 9 1
5 4 5 1
6 4 10 1
7 4 11 1
8 5 6 1
9 5 12 1
10 5 13 1
11 6 7 2
12 6 8 1
13 8 14 1
@<TRIPOS>SUBSTRUCTURE
1	SIN0	1	GROUP	1 ****	SIN
