# created with PyMOL 2.3.5
@<TRIPOS>MOLECULE
QNB
49 52 1 0 0
SMALL
USER_CHARGES


@<TRIPOS>ATOM
      1 H01        -4.7860   -2.2310    0.5480 H         1 QNB1        0.0000
      2 C1          1.2230   -0.0620    0.5540 C.3       1 QNB1        0.0000
      3 C2          2.2460   -1.1090    0.1980 C.2       1 QNB1        0.0000
      4 C3          2.7760   -1.1510   -1.0790 C.2       1 QNB1        0.0000
      5 C4          3.7140   -2.1120   -1.4060 C.2       1 QNB1        0.0000
      6 C5          4.1230   -3.0300   -0.4570 C.2       1 QNB1        0.0000
      7 C6          3.5940   -2.9870    0.8190 C.2       1 QNB1        0.0000
      8 C7          2.6590   -2.0240    1.1480 C.2       1 QNB1        0.0000
      9 C8          1.7700    1.3050    0.2330 C.2       1 QNB1        0.0000
     10 C9          1.7430    1.7720   -1.0680 C.2       1 QNB1        0.0000
     11 C10         2.2460    3.0250   -1.3640 C.2       1 QNB1        0.0000
     12 C11         2.7750    3.8120   -0.3580 C.2       1 QNB1        0.0000
     13 C12         2.8010    3.3460    0.9430 C.2       1 QNB1        0.0000
     14 C13         2.2940    2.0950    1.2390 C.2       1 QNB1        0.0000
     15 C14        -0.0360   -0.2980   -0.2390 C.2       1 QNB1        0.0000
     16 O15         0.9280   -0.1400    1.9510 O.3       1 QNB1        0.0000
     17 O16         0.0160   -0.8840   -1.2940 O.co2     1 QNB1        0.0000
     18 O17        -1.2160    0.1420    0.2270 O.3       1 QNB1        0.0000
     19 C18        -2.3870   -0.1210   -0.5900 C.3       1 QNB1        0.0000
     20 C19        -2.9980   -1.4680   -0.1930 C.3       1 QNB1        0.0000
     21 N20        -4.3760   -1.2590    0.2720 N.3       1 QNB1        0.0000
     22 C21        -4.4070   -0.4010    1.4650 C.3       1 QNB1        0.0000
     23 C22        -3.8350    0.9750    1.1140 C.3       1 QNB1        0.0000
     24 C23        -3.4290    0.9810   -0.3650 C.3       1 QNB1        0.0000
     25 C24        -4.6670    0.6650   -1.2140 C.3       1 QNB1        0.0000
     26 C25        -5.2150   -0.7030   -0.7980 C.3       1 QNB1        0.0000
     27 H3          2.4560   -0.4340   -1.8200 H         1 QNB1        0.0000
     28 H4          4.1270   -2.1460   -2.4030 H         1 QNB1        0.0000
     29 H5          4.8560   -3.7820   -0.7130 H         1 QNB1        0.0000
     30 H6          3.9140   -3.7050    1.5610 H         1 QNB1        0.0000
     31 H7          2.2490   -1.9880    2.1460 H         1 QNB1        0.0000
     32 H9          1.3300    1.1570   -1.8540 H         1 QNB1        0.0000
     33 H10         2.2250    3.3890   -2.3800 H         1 QNB1        0.0000
     34 H11         3.1680    4.7910   -0.5890 H         1 QNB1        0.0000
     35 H12         3.2150    3.9610    1.7290 H         1 QNB1        0.0000
     36 H13         2.3140    1.7300    2.2560 H         1 QNB1        0.0000
     37 HO15        0.5710   -0.9940    2.2300 H         1 QNB1        0.0000
     38 H18        -2.1000   -0.1460   -1.6420 H         1 QNB1        0.0000
     39 H19        -3.0020   -2.1340   -1.0550 H         1 QNB1        0.0000
     40 H19A       -2.4070   -1.9130    0.6080 H         1 QNB1        0.0000
     41 H21        -5.4360   -0.2920    1.8070 H         1 QNB1        0.0000
     42 H21A       -3.8070   -0.8540    2.2540 H         1 QNB1        0.0000
     43 H22        -4.5920    1.7400    1.2880 H         1 QNB1        0.0000
     44 H22A       -2.9610    1.1770    1.7340 H         1 QNB1        0.0000
     45 H23        -3.0130    1.9520   -0.6360 H         1 QNB1        0.0000
     46 H24        -5.4270    1.4280   -1.0490 H         1 QNB1        0.0000
     47 H24A       -4.3910    0.6430   -2.2680 H         1 QNB1        0.0000
     48 H25        -5.2040   -1.3750   -1.6560 H         1 QNB1        0.0000
     49 H25A       -6.2380   -0.5910   -0.4370 H         1 QNB1        0.0000
@<TRIPOS>BOND
     1    2    3 1
     2    2   16 1
     3    3    8 1
     4    3    4 2
     5    4    5 1
     6    4   27 1
     7    5    6 2
     8    5   28 1
     9    6    7 1
    10    6   29 1
    11    7   30 1
    12    7    8 2
    13    8   31 1
    14    2    9 1
    15    9   10 1
    16   10   32 1
    17   10   11 2
    18   11   33 1
    19   11   12 1
    20   12   13 2
    21   12   34 1
    22   13   14 1
    23   13   35 1
    24    9   14 2
    25   14   36 1
    26    2   15 1
    27   15   17 2
    28   16   37 1
    29   15   18 1
    30   18   19 1
    31   19   20 1
    32   19   38 1
    33   20   39 1
    34   20   40 1
    35    1   21 1
    36   20   21 1
    37   21   22 1
    38   22   41 1
    39   22   42 1
    40   22   23 1
    41   23   24 1
    42   23   43 1
    43   23   44 1
    44   19   24 1
    45   24   25 1
    46   24   45 1
    47   25   26 1
    48   25   46 1
    49   25   47 1
    50   21   26 1
    51   26   48 1
    52   26   49 1
@<TRIPOS>SUBSTRUCTURE
     1 QNB1        1 RESIDUE           4 A     QNB     0 ROOT
