@<TRIPOS>MOLECULE
    ZAL
  107   111     0     0     0
SMALL
USER_CHARGES


@<TRIPOS>ATOM
      1 X          -0.1360   29.5590   16.2870 N.4        1 ZAL      0.000000
      2 X           0.6070   30.5770   17.0140 C.3        1 ZAL      0.000000
      3 X          -0.3560   31.5080   17.7530 C.3        1 ZAL      0.000000
      4 X           0.2640   32.8190   18.1970 C.3        1 ZAL      0.000000
      5 X          -0.7200   33.7770   18.8480 C.3        1 ZAL      0.000000
      6 X          -1.1480   33.3130   20.1640 N.am       1 ZAL      0.000000
      7 X           1.5670   29.9220   17.9970 C.2        1 ZAL      0.000000
      8 X           1.1400   29.1990   18.8960 O.2        1 ZAL      0.000000
      9 X           1.1841   31.1653   16.3006 H          1 ZAL      0.000000
     10 X          -1.1910   31.7324   17.0893 H          1 ZAL      0.000000
     11 X          -0.7386   30.9881   18.6313 H          1 ZAL      0.000000
     12 X           0.6926   33.3091   17.3228 H          1 ZAL      0.000000
     13 X           1.0644   32.6051   18.9054 H          1 ZAL      0.000000
     14 X          -0.2427   34.7509   18.9568 H          1 ZAL      0.000000
     15 X          -1.5945   33.8794   18.2054 H          1 ZAL      0.000000
     16 X          -2.0729   32.9220   20.2724 H          1 ZAL      0.000000
     17 X           0.5097   28.9511   15.8037 H          1 ZAL      0.000000
     18 X          -0.6869   29.0163   16.9367 H          1 ZAL      0.000000
     19 X          -0.7469   30.0028   15.6162 H          1 ZAL      0.000000
     20 X           2.8730   30.1730   17.8270 N.am       2 ZAL      0.000000
     21 X           3.8940   29.5770   18.6950 C.3        2 ZAL      0.000000
     22 X           3.8160   30.1050   20.1240 C.2        2 ZAL      0.000000
     23 X           3.4030   31.2450   20.3390 O.2        2 ZAL      0.000000
     24 X           5.2070   29.9960   18.0290 C.3        2 ZAL      0.000000
     25 X           4.8710   31.2560   17.3100 C.3        2 ZAL      0.000000
     26 X           3.4620   31.0740   16.8210 C.3        2 ZAL      0.000000
     27 X           3.8017   28.4909   18.6912 H          2 ZAL      0.000000
     28 X           5.5460   29.2316   17.3298 H          2 ZAL      0.000000
     29 X           5.9708   30.1835   18.7837 H          2 ZAL      0.000000
     30 X           5.5491   31.4080   16.4703 H          2 ZAL      0.000000
     31 X           4.9244   32.1035   17.9934 H          2 ZAL      0.000000
     32 X           3.4473   30.6180   15.8311 H          2 ZAL      0.000000
     33 X           2.9359   32.0286   16.8092 H          2 ZAL      0.000000
     34 C1          6.4910   28.6760   22.2550 C.3        3 ZAL      0.000000
     35 C2          7.2600   29.9660   22.0080 C.3        3 ZAL      0.000000
     36 C3          8.2220   30.3330   23.1160 C.3        3 ZAL      0.000000
     37 C4          9.1290   29.1750   23.4790 C.3        3 ZAL      0.000000
     38 C5          8.3120   27.9700   23.8920 C.3        3 ZAL      0.000000
     39 C6          7.3440   27.5430   22.8100 C.3        3 ZAL      0.000000
     40 N           4.2030   29.2770   21.0880 N.am       3 ZAL      0.000000
     41 CA          4.2210   29.6820   22.4510 C.3        3 ZAL      0.000000
     42 CB          5.3160   28.9470   23.1970 C.3        3 ZAL      0.000000
     43 C           2.8840   29.3930   23.0940 C.2        3 ZAL      0.000000
     44 O           2.3750   28.2430   23.0240 O.2        3 ZAL      0.000000
     45 H1          6.0815   28.3459   21.3003 H          3 ZAL      0.000000
     46 H22         7.8282   29.8543   21.0845 H          3 ZAL      0.000000
     47 H23         6.5457   30.7796   21.8821 H          3 ZAL      0.000000
     48 H32         7.6506   30.6234   23.9976 H          3 ZAL      0.000000
     49 H33         8.8325   31.1763   22.7932 H          3 ZAL      0.000000
     50 H42         9.7745   29.4709   24.3060 H          3 ZAL      0.000000
     51 H43         9.7438   28.9152   22.6173 H          3 ZAL      0.000000
     52 H52         8.9887   27.1425   24.1050 H          3 ZAL      0.000000
     53 H53         7.7517   28.2127   24.7949 H          3 ZAL      0.000000
     54 H62         7.9171   27.1125   21.9888 H          3 ZAL      0.000000
     55 H63         6.6843   26.7756   23.2150 H          3 ZAL      0.000000
     56 H           4.4908   28.3392   20.8476 H          3 ZAL      0.000000
     57 HA          4.4149   30.7535   22.5007 H          3 ZAL      0.000000
     58 HB2         4.9264   28.0004   23.5714 H          3 ZAL      0.000000
     59 HB3         5.6558   29.5560   24.0347 H          3 ZAL      0.000000
     60 Y0          2.2950   30.4120   23.7120 N.am       4 ZAL      0.000000
     61 X           1.0610   30.2370   24.4700 C.3        4 ZAL      0.000000
     62 X          -0.1270   30.9530   23.8310 C.2        4 ZAL      0.000000
     63 X          -1.2510   30.4510   23.8570 O.2        4 ZAL      0.000000
     64 X           1.2610   30.7210   25.9070 C.3        4 ZAL      0.000000
     65 X           2.2330   29.8760   26.6760 C.ar       4 ZAL      0.000000
     66 X           1.9480   28.7530   27.3960 C.ar       4 ZAL      0.000000
     67 X           3.6480   30.0790   26.7930 C.ar       4 ZAL      0.000000
     68 X           3.0940   28.2460   27.9580 N.ar       4 ZAL      0.000000
     69 X           4.1520   29.0410   27.6030 C.ar       4 ZAL      0.000000
     70 X           4.5370   31.0360   26.2940 C.ar       4 ZAL      0.000000
     71 X           5.5030   28.9350   27.9260 C.ar       4 ZAL      0.000000
     72 X           5.8780   30.9290   26.6170 C.ar       4 ZAL      0.000000
     73 X           6.3480   29.8860   27.4240 C.ar       4 ZAL      0.000000
     74 X           2.7122   31.3301   23.6553 H          4 ZAL      0.000000
     75 X           0.8341   29.1714   24.5023 H          4 ZAL      0.000000
     76 X           0.2990   30.6980   26.4190 H          4 ZAL      0.000000
     77 X           1.6254   31.7481   25.8862 H          4 ZAL      0.000000
     78 X           0.9631   28.3243   27.5080 H          4 ZAL      0.000000
     79 X           4.1838   31.8427   25.6688 H          4 ZAL      0.000000
     80 X           5.8691   28.1324   28.5491 H          4 ZAL      0.000000
     81 X           6.5746   31.6631   26.2399 H          4 ZAL      0.000000
     82 X           7.4015   29.8312   27.6553 H          4 ZAL      0.000000
     83 X           3.1481   27.4213   28.5385 H          4 ZAL      0.000000
     84 X           0.1210   32.1320   23.2700 N.am       5 ZAL      0.000000
     85 X          -0.9100   32.8580   22.5350 C.3        5 ZAL      0.000000
     86 X          -0.3490   33.3930   21.2230 C.2        5 ZAL      0.000000
     87 X           0.7830   33.8750   21.1730 O.2        5 ZAL      0.000000
     88 X          -1.4810   34.0080   23.3690 C.3        5 ZAL      0.000000
     89 X          -2.4460   33.5850   24.4690 C.3        5 ZAL      0.000000
     90 X          -1.7130   33.2290   25.7510 C.3        5 ZAL      0.000000
     91 X          -0.7880   34.2840   26.1500 N.pl3      5 ZAL      0.000000
     92 X          -1.1230   35.3250   26.9050 C.2        5 ZAL      0.000000
     93 X          -0.2150   36.2380   27.2180 N.pl3      5 ZAL      0.000000
     94 X          -2.3650   35.4480   27.3530 N.pl3      5 ZAL      0.000000
     95 X           1.0435   32.5346   23.3542 H          5 ZAL      0.000000
     96 X          -1.7198   32.1655   22.3051 H          5 ZAL      0.000000
     97 X          -2.0094   34.6838   22.6966 H          5 ZAL      0.000000
     98 X          -0.6525   34.5503   23.8246 H          5 ZAL      0.000000
     99 X          -3.1333   34.4065   24.6713 H          5 ZAL      0.000000
    100 X          -3.0149   32.7189   24.1310 H          5 ZAL      0.000000
    101 X          -1.1523   32.3076   25.5938 H          5 ZAL      0.000000
    102 X          -2.4411   33.0726   26.5470 H          5 ZAL      0.000000
    103 X           0.1684   34.2191   25.8320 H          5 ZAL      0.000000
    104 X           0.7323   36.1447   26.8802 H          5 ZAL      0.000000
    105 X          -0.4702   37.0272   27.7943 H          5 ZAL      0.000000
    106 X          -3.0579   34.7517   27.1180 H          5 ZAL      0.000000
    107 X          -2.6181   36.2380   27.9292 H          5 ZAL      0.000000
@<TRIPOS>BOND
     1    1    2 1
     2    1   17 1
     3    1   18 1
     4    1   19 1
     5    2    3 1
     6    2    7 1
     7    2    9 1
     8    3    4 1
     9    3   10 1
    10    3   11 1
    11    4    5 1
    12    4   12 1
    13    4   13 1
    14    5    6 1
    15    5   14 1
    16    5   15 1
    17    6   16 1
    18    6   86 am
    19    7    8 2
    20    7   20 am
    21   20   21 1
    22   20   26 1
    23   21   22 1
    24   21   24 1
    25   21   27 1
    26   22   23 2
    27   22   40 am
    28   24   25 1
    29   24   28 1
    30   24   29 1
    31   25   26 1
    32   25   30 1
    33   25   31 1
    34   26   32 1
    35   26   33 1
    36   34   35 1
    37   34   39 1
    38   34   42 1
    39   34   45 1
    40   35   36 1
    41   35   46 1
    42   35   47 1
    43   36   37 1
    44   36   48 1
    45   36   49 1
    46   37   38 1
    47   37   50 1
    48   37   51 1
    49   38   39 1
    50   38   52 1
    51   38   53 1
    52   39   54 1
    53   39   55 1
    54   40   41 1
    55   40   56 1
    56   41   42 1
    57   41   43 1
    58   41   57 1
    59   42   58 1
    60   42   59 1
    61   43   44 2
    62   43   60 am
    63   60   61 1
    64   60   74 1
    65   61   62 1
    66   61   64 1
    67   61   75 1
    68   62   63 2
    69   62   84 am
    70   64   65 1
    71   64   76 1
    72   64   77 1
    73   65   66 ar
    74   65   67 ar
    75   66   68 ar
    76   66   78 1
    77   67   69 ar
    78   67   70 ar
    79   68   69 ar
    80   68   83 1
    81   69   71 ar
    82   70   72 ar
    83   70   79 1
    84   71   73 ar
    85   71   80 1
    86   72   73 ar
    87   72   81 1
    88   73   82 1
    89   84   85 1
    90   84   95 1
    91   85   86 1
    92   85   88 1
    93   85   96 1
    94   86   87 2
    95   88   89 1
    96   88   97 1
    97   88   98 1
    98   89   90 1
    99   89   99 1
   100   89  100 1
   101   90   91 1
   102   90  101 1
   103   90  102 1
   104   91   92 1
   105   91  103 1
   106   92   93 2
   107   92   94 1
   108   93  104 1
   109   93  105 1
   110   94  106 1
   111   94  107 1
