# created with PyMOL 2.3.5
@<TRIPOS>MOLECULE
DGV
65 68 1                 
SMALL
USER_CHARGES
@<TRIPOS>ATOM
1	CLAY	4.659	2.177	-1.217	Cl	1	DGV0	0.000	
2	 CBA	6.171	1.378	-0.919	C.2	1	DGV0	0.000	
3	 CBB	7.336	1.868	-1.482	C.2	1	DGV0	0.000	
4	 CBF	8.540	1.232	-1.244	C.2	1	DGV0	0.000	
5	 CBE	8.581	0.106	-0.444	C.2	1	DGV0	0.000	
6	 CBD	7.417	-0.386	0.120	C.2	1	DGV0	0.000	
7	CLBC	7.469	-1.800	1.125	Cl	1	DGV0	0.000	
8	 CAZ	6.213	0.254	-0.113	C.2	1	DGV0	0.000	
9	 CAX	4.944	-0.281	0.500	C.3	1	DGV0	0.000	
10	 CAU	3.952	-0.642	-0.609	C.3	1	DGV0	0.000	
11	 CAT	2.645	-1.127	0.021	C.3	1	DGV0	0.000	
12	 CAW	4.323	0.788	1.404	C.3	1	DGV0	0.000	
13	 CAV	3.004	0.261	1.975	C.3	1	DGV0	0.000	
14	 NAS	2.089	-0.069	0.874	N.3	1	DGV0	0.000	
15	 CAR	0.764	-0.446	1.385	C.3	1	DGV0	0.000	
16	 CAQ	-0.224	-0.539	0.221	C.3	1	DGV0	0.000	
17	 CAP	-1.604	-0.933	0.754	C.3	1	DGV0	0.000	
18	 NAO	-2.550	-1.022	-0.361	N.pl3	1	DGV0	0.000	
19	   C	-3.835	-1.356	-0.128	C.2	1	DGV0	0.000	
20	   O	-4.208	-1.582	1.003	O.2	1	DGV0	0.000	
21	  CD	-7.178	-1.610	-0.944	C.3	1	DGV0	0.000	
22	  CG	-6.740	-2.796	-1.839	C.3	1	DGV0	0.000	
23	  CB	-5.234	-2.916	-1.486	C.3	1	DGV0	0.000	
24	  CA	-4.809	-1.448	-1.275	C.3	1	DGV0	0.000	
25	   N	-6.028	-0.680	-0.960	N.3	1	DGV0	0.000	
26	 CAG	-5.895	0.015	0.327	C.3	1	DGV0	0.000	
27	 CAF	-6.951	1.085	0.432	C.2	1	DGV0	0.000	
28	 CAE	-6.689	2.362	-0.028	C.2	1	DGV0	0.000	
29	 CAD	-7.658	3.343	0.068	C.2	1	DGV0	0.000	
30	 CAA	-8.889	3.047	0.623	C.2	1	DGV0	0.000	
31	 CAB	-9.151	1.770	1.083	C.2	1	DGV0	0.000	
32	 CAC	-8.184	0.788	0.983	C.2	1	DGV0	0.000	
33	  H1	7.305	2.748	-2.108	 H	1	DGV0	0.000	
34	  H2	9.449	1.615	-1.684	 H	1	DGV0	0.000	
35	  H3	9.522	-0.391	-0.259	 H	1	DGV0	0.000	
36	  H4	5.171	-1.169	1.090	 H	1	DGV0	0.000	
37	  H5	3.757	0.237	-1.222	 H	1	DGV0	0.000	
38	  H6	4.373	-1.433	-1.230	 H	1	DGV0	0.000	
39	  H7	1.931	-1.372	-0.766	 H	1	DGV0	0.000	
40	  H8	2.839	-2.014	0.624	 H	1	DGV0	0.000	
41	  H9	5.008	1.017	2.220	 H	1	DGV0	0.000	
42	 H10	4.134	1.690	0.823	 H	1	DGV0	0.000	
43	 H11	3.197	-0.633	2.568	 H	1	DGV0	0.000	
44	 H12	2.552	1.025	2.608	 H	1	DGV0	0.000	
45	 H14	0.830	-1.413	1.885	 H	1	DGV0	0.000	
46	 H15	0.421	0.307	2.095	 H	1	DGV0	0.000	
47	 H16	-0.290	0.427	-0.278	 H	1	DGV0	0.000	
48	 H17	0.119	-1.292	-0.488	 H	1	DGV0	0.000	
49	 H18	-1.538	-1.899	1.253	 H	1	DGV0	0.000	
50	 H19	-1.947	-0.180	1.463	 H	1	DGV0	0.000	
51	 H20	-2.252	-0.840	-1.266	 H	1	DGV0	0.000	
52	 H21	-8.062	-1.127	-1.360	 H	1	DGV0	0.000	
53	 H22	-7.376	-1.951	0.072	 H	1	DGV0	0.000	
54	 H23	-7.278	-3.706	-1.571	 H	1	DGV0	0.000	
55	 H24	-6.877	-2.560	-2.894	 H	1	DGV0	0.000	
56	 H25	-5.097	-3.492	-0.571	 H	1	DGV0	0.000	
57	 H26	-4.680	-3.363	-2.311	 H	1	DGV0	0.000	
58	 H27	-4.351	-1.060	-2.185	 H	1	DGV0	0.000	
59	 H29	-6.020	-0.700	1.141	 H	1	DGV0	0.000	
60	 H30	-4.907	0.471	0.393	 H	1	DGV0	0.000	
61	 H31	-5.728	2.593	-0.462	 H	1	DGV0	0.000	
62	 H32	-7.453	4.341	-0.291	 H	1	DGV0	0.000	
63	 H33	-9.646	3.814	0.699	 H	1	DGV0	0.000	
64	 H34	-10.112	1.539	1.517	 H	1	DGV0	0.000	
65	 H35	-8.390	-0.211	1.338	 H	1	DGV0	0.000	
@<TRIPOS>BOND
1 22 23 1
2 21 22 1
3 23 24 1
4 21 25 1
5 24 25 1
6 19 24 1
7 25 26 1
8 26 27 1
9 18 19 1
10 19 20 2
11 17 18 1
12 27 32 2
13 27 28 1
14 16 17 1
15 31 32 1
16 28 29 2
17 15 16 1
18 30 31 2
19 29 30 1
20 14 15 1
21 13 14 1
22 11 14 1
23 12 13 1
24 10 11 1
25 9 12 1
26 9 10 1
27 8 9 1
28 6 7 1
29 6 8 2
30 2 8 1
31 5 6 1
32 1 2 1
33 2 3 2
34 4 5 2
35 3 4 1
36 3 33 1
37 4 34 1
38 5 35 1
39 9 36 1
40 10 37 1
41 10 38 1
42 11 39 1
43 11 40 1
44 12 41 1
45 12 42 1
46 13 43 1
47 13 44 1
48 15 45 1
49 15 46 1
50 16 47 1
51 16 48 1
52 17 49 1
53 17 50 1
54 18 51 1
55 21 52 1
56 21 53 1
57 22 54 1
58 22 55 1
59 23 56 1
60 23 57 1
61 24 58 1
62 26 59 1
63 26 60 1
64 28 61 1
65 29 62 1
66 30 63 1
67 31 64 1
68 32 65 1
@<TRIPOS>SUBSTRUCTURE
1	DGV0	1	GROUP	1 ****	DGV
