# created with PyMOL 2.3.5
@<TRIPOS>MOLECULE
JTZ
42 42 1 0 0
SMALL
USER_CHARGES


@<TRIPOS>ATOM
      1 H01         3.8470    1.3810   -0.7620 H         1 JTZ1        0.0000
      2 C1          5.7830   -0.9630    0.6600 C.3       1 JTZ1        0.0000
      3 N1          3.9910    0.5140   -0.1180 N.3       1 JTZ1        0.0000
      4 O1          1.6460    0.6930    1.4840 O.3       1 JTZ1        0.0000
      5 C2          5.2480   -0.1370   -0.5110 C.3       1 JTZ1        0.0000
      6 O2         -0.8440    0.0880    0.1840 O.3       1 JTZ1        0.0000
      7 C3          6.2760    0.9280   -0.8960 C.3       1 JTZ1        0.0000
      8 C4          2.8480   -0.3870   -0.3130 C.3       1 JTZ1        0.0000
      9 C5          1.5600    0.3250    0.1060 C.3       1 JTZ1        0.0000
     10 C6          0.3690   -0.6140   -0.0970 C.3       1 JTZ1        0.0000
     11 C7         -2.0040   -0.6080    0.0510 C.2       1 JTZ1        0.0000
     12 C8         -1.9760   -1.9380   -0.3420 C.2       1 JTZ1        0.0000
     13 C9         -3.1570   -2.6420   -0.4770 C.2       1 JTZ1        0.0000
     14 C10        -4.3660   -2.0230   -0.2210 C.2       1 JTZ1        0.0000
     15 C11        -4.3970   -0.6970    0.1700 C.2       1 JTZ1        0.0000
     16 C12        -3.2190    0.0100    0.3130 C.2       1 JTZ1        0.0000
     17 C13        -3.2530    1.4530    0.7460 C.3       1 JTZ1        0.0000
     18 C14        -3.2270    2.3440   -0.4700 C.2       1 JTZ1        0.0000
     19 C15        -4.1640    3.2420   -0.6430 C.2       1 JTZ1        0.0000
     20 H1          5.9640   -0.3080    1.5130 H         1 JTZ1        0.0000
     21 H1A         5.0500   -1.7220    0.9340 H         1 JTZ1        0.0000
     22 H1B         6.7150   -1.4460    0.3690 H         1 JTZ1        0.0000
     23 HN1         4.0360    0.8400    0.8360 H         1 JTZ1        0.0000
     24 HO1         1.7670   -0.0550    2.0850 H         1 JTZ1        0.0000
     25 H2          5.0660   -0.7920   -1.3640 H         1 JTZ1        0.0000
     26 H3          7.2080    0.4450   -1.1880 H         1 JTZ1        0.0000
     27 H3A         5.8950    1.5160   -1.7310 H         1 JTZ1        0.0000
     28 H3B         6.4570    1.5830   -0.0430 H         1 JTZ1        0.0000
     29 H4          2.7810   -0.6680   -1.3640 H         1 JTZ1        0.0000
     30 H4A         2.9820   -1.2820    0.2950 H         1 JTZ1        0.0000
     31 H5          1.4250    1.2190   -0.5010 H         1 JTZ1        0.0000
     32 H6          0.4590   -1.4670    0.5770 H         1 JTZ1        0.0000
     33 H6A         0.3550   -0.9650   -1.1280 H         1 JTZ1        0.0000
     34 H8         -1.0310   -2.4220   -0.5420 H         1 JTZ1        0.0000
     35 H9         -3.1350   -3.6780   -0.7830 H         1 JTZ1        0.0000
     36 H10        -5.2870   -2.5750   -0.3270 H         1 JTZ1        0.0000
     37 H11        -5.3430   -0.2150    0.3700 H         1 JTZ1        0.0000
     38 H13        -4.1640    1.6410    1.3140 H         1 JTZ1        0.0000
     39 H13A       -2.3850    1.6660    1.3700 H         1 JTZ1        0.0000
     40 H14        -2.4350    2.2410   -1.1980 H         1 JTZ1        0.0000
     41 H15        -4.9550    3.3450    0.0840 H         1 JTZ1        0.0000
     42 H15A       -4.1450    3.8800   -1.5150 H         1 JTZ1        0.0000
@<TRIPOS>BOND
     1    2    5 1
     2    2   20 1
     3    2   21 1
     4    2   22 1
     5    1    3 1
     6    3    5 1
     7    3    8 1
     8    3   23 1
     9    4    9 1
    10    4   24 1
    11    5    7 1
    12    5   25 1
    13    6   10 1
    14    6   11 1
    15    7   26 1
    16    7   27 1
    17    7   28 1
    18    8    9 1
    19    8   29 1
    20    8   30 1
    21    9   10 1
    22    9   31 1
    23   10   32 1
    24   10   33 1
    25   11   12 2
    26   11   16 1
    27   12   13 1
    28   12   34 1
    29   13   14 2
    30   13   35 1
    31   14   15 1
    32   14   36 1
    33   15   16 2
    34   15   37 1
    35   16   17 1
    36   17   18 1
    37   17   38 1
    38   17   39 1
    39   18   19 2
    40   18   40 1
    41   19   41 1
    42   19   42 1
@<TRIPOS>SUBSTRUCTURE
     1 JTZ1        1 RESIDUE           4 A     JTZ     0 ROOT
