# created with PyMOL 2.3.5
@<TRIPOS>MOLECULE
C8E
55 54 1 0 0
SMALL
USER_CHARGES


@<TRIPOS>ATOM
      1 C1         -2.2830   -0.7750   10.1630 C.3       1 C8E1        0.0000
      2 C2         -1.8270    0.2380    9.1120 C.3       1 C8E1        0.0000
      3 C3         -1.2280   -0.5030    7.9140 C.3       1 C8E1        0.0000
      4 C4         -0.7720    0.5100    6.8630 C.3       1 C8E1        0.0000
      5 C5         -0.1740   -0.2300    5.6660 C.3       1 C8E1        0.0000
      6 C6          0.2810    0.7830    4.6140 C.3       1 C8E1        0.0000
      7 C7          0.8800    0.0420    3.4170 C.3       1 C8E1        0.0000
      8 C8          1.3360    1.0550    2.3660 C.3       1 C8E1        0.0000
      9 O9          1.8950    0.3630    1.2480 O.3       1 C8E1        0.0000
     10 C10         2.3000    1.3590    0.3060 C.3       1 C8E1        0.0000
     11 C11         2.9100    0.6810   -0.9210 C.3       1 C8E1        0.0000
     12 O12         1.9390   -0.1770   -1.5240 O.3       1 C8E1        0.0000
     13 C13         2.5660   -0.7770   -2.6590 C.3       1 C8E1        0.0000
     14 C14         1.5750   -1.7140   -3.3530 C.3       1 C8E1        0.0000
     15 O15         0.4330   -0.9680   -3.7790 O.3       1 C8E1        0.0000
     16 C16        -0.4490   -1.8930   -4.4160 C.3       1 C8E1        0.0000
     17 C17        -1.7000   -1.1540   -4.8980 C.3       1 C8E1        0.0000
     18 O18        -1.3230   -0.1370   -5.8280 O.3       1 C8E1        0.0000
     19 C19        -2.5270    0.5120   -6.2400 C.3       1 C8E1        0.0000
     20 C20        -2.1930    1.6180   -7.2420 C.3       1 C8E1        0.0000
     21 O21        -1.5460    1.0490   -8.3820 O.3       1 C8E1        0.0000
     22 H11        -1.4280   -1.3670   10.4920 H         1 C8E1        0.0000
     23 H12        -2.7090   -0.2470   11.0160 H         1 C8E1        0.0000
     24 H13        -3.0360   -1.4340    9.7300 H         1 C8E1        0.0000
     25 H21        -2.6810    0.8290    8.7830 H         1 C8E1        0.0000
     26 H22        -1.0740    0.8960    9.5440 H         1 C8E1        0.0000
     27 H31        -0.3740   -1.0940    8.2430 H         1 C8E1        0.0000
     28 H32        -1.9810   -1.1610    7.4810 H         1 C8E1        0.0000
     29 H41        -1.6270    1.1020    6.5340 H         1 C8E1        0.0000
     30 H42        -0.0190    1.1690    7.2960 H         1 C8E1        0.0000
     31 H51         0.6800   -0.8220    5.9950 H         1 C8E1        0.0000
     32 H52        -0.9270   -0.8890    5.2330 H         1 C8E1        0.0000
     33 H61        -0.5720    1.3740    4.2850 H         1 C8E1        0.0000
     34 H62         1.0340    1.4410    5.0470 H         1 C8E1        0.0000
     35 H71         1.7340   -0.5490    3.7460 H         1 C8E1        0.0000
     36 H72         0.1270   -0.6160    2.9840 H         1 C8E1        0.0000
     37 H81         0.4820    1.6470    2.0370 H         1 C8E1        0.0000
     38 H82         2.0890    1.7140    2.7990 H         1 C8E1        0.0000
     39 H101        1.4330    1.9470    0.0030 H         1 C8E1        0.0000
     40 H102        3.0400    2.0140    0.7650 H         1 C8E1        0.0000
     41 H111        3.2190    1.4400   -1.6400 H         1 C8E1        0.0000
     42 H112        3.7770    0.0930   -0.6190 H         1 C8E1        0.0000
     43 H131        2.8790    0.0000   -3.3550 H         1 C8E1        0.0000
     44 H132        3.4370   -1.3460   -2.3340 H         1 C8E1        0.0000
     45 H141        2.0530   -2.1720   -4.2180 H         1 C8E1        0.0000
     46 H142        1.2620   -2.4920   -2.6570 H         1 C8E1        0.0000
     47 H161        0.0540   -2.3480   -5.2680 H         1 C8E1        0.0000
     48 H162       -0.7370   -2.6680   -3.7060 H         1 C8E1        0.0000
     49 H171       -2.3740   -1.8600   -5.3840 H         1 C8E1        0.0000
     50 H172       -2.2040   -0.6980   -4.0460 H         1 C8E1        0.0000
     51 H191       -3.1910   -0.2140   -6.7090 H         1 C8E1        0.0000
     52 H192       -3.0210    0.9470   -5.3700 H         1 C8E1        0.0000
     53 H201       -3.1110    2.1140   -7.5560 H         1 C8E1        0.0000
     54 H202       -1.5290    2.3450   -6.7730 H         1 C8E1        0.0000
     55 HO2        -1.3530    1.7780   -8.9870 H         1 C8E1        0.0000
@<TRIPOS>BOND
     1    1    2 1
     2    1   22 1
     3    1   23 1
     4    1   24 1
     5    2    3 1
     6    2   25 1
     7    2   26 1
     8    3    4 1
     9    3   27 1
    10    3   28 1
    11    4    5 1
    12    4   29 1
    13    4   30 1
    14    5    6 1
    15    5   31 1
    16    5   32 1
    17    6    7 1
    18    6   33 1
    19    6   34 1
    20    7    8 1
    21    7   35 1
    22    7   36 1
    23    8    9 1
    24    8   37 1
    25    8   38 1
    26    9   10 1
    27   10   11 1
    28   10   39 1
    29   10   40 1
    30   11   12 1
    31   11   41 1
    32   11   42 1
    33   12   13 1
    34   13   14 1
    35   13   43 1
    36   13   44 1
    37   14   15 1
    38   14   45 1
    39   14   46 1
    40   15   16 1
    41   16   17 1
    42   16   47 1
    43   16   48 1
    44   17   18 1
    45   17   49 1
    46   17   50 1
    47   18   19 1
    48   19   20 1
    49   19   51 1
    50   19   52 1
    51   20   21 1
    52   20   53 1
    53   20   54 1
    54   21   55 1
@<TRIPOS>SUBSTRUCTURE
     1 C8E1        1 RESIDUE           4 A     C8E     0 ROOT
