# created with PyMOL 2.3.5
@<TRIPOS>MOLECULE
QGW
44 46 1 0 0
SMALL
USER_CHARGES


@<TRIPOS>ATOM
      1 C1          0.5880    0.9640    0.6510 C.2       1 QGW1        0.0000
      2 C10        -6.8590    1.1450   -0.4280 C.3       1 QGW1        0.0000
      3 C11         1.4470   -1.1880   -0.0880 C.2       1 QGW1        0.0000
      4 C12         2.7190   -0.6920   -0.0430 C.2       1 QGW1        0.0000
      5 C13         2.9450    0.6260    0.3450 C.2       1 QGW1        0.0000
      6 C14         1.8890    1.4520    0.6910 C.2       1 QGW1        0.0000
      7 C15         4.7560    1.4890   -0.7870 C.2       1 QGW1        0.0000
      8 C16         6.1970    1.9260   -0.8420 C.3       1 QGW1        0.0000
      9 C17         3.8830   -1.5760   -0.4110 C.3       1 QGW1        0.0000
     10 C18         4.4710   -2.1990    0.8570 C.3       1 QGW1        0.0000
     11 C19         5.6530   -3.0960    0.4840 C.3       1 QGW1        0.0000
     12 C2          0.3730   -0.3680    0.2530 C.2       1 QGW1        0.0000
     13 C3         -1.0180   -0.8590    0.2000 C.2       1 QGW1        0.0000
     14 C4         -2.0680    0.1740    0.2940 C.2       1 QGW1        0.0000
     15 C5         -1.7010    1.4270    0.6810 C.2       1 QGW1        0.0000
     16 C6         -2.7610    2.4950    0.7600 C.3       1 QGW1        0.0000
     17 C7         -3.4760   -0.1410   -0.0240 C.2       1 QGW1        0.0000
     18 C8         -5.6460    0.2540   -0.3610 C.2       1 QGW1        0.0000
     19 C9         -5.7160   -1.0580   -0.6040 C.2       1 QGW1        0.0000
     20 N1         -4.4540    0.7180   -0.0580 N.2       1 QGW1        0.0000
     21 O1         -0.4470    1.7530    0.9940 O.3       1 QGW1        0.0000
     22 O2         -1.2820   -2.0440    0.0870 O.2       1 QGW1        0.0000
     23 O3          4.2140    1.1080    0.3820 O.3       1 QGW1        0.0000
     24 O4          4.0870    1.4810   -1.7930 O.co2     1 QGW1        0.0000
     25 S1         -4.1000   -1.7390   -0.4260 S.3       1 QGW1        0.0000
     26 H1         -7.3350    1.1860    0.5510 H         1 QGW1        0.0000
     27 H2         -6.5560    2.1490   -0.7270 H         1 QGW1        0.0000
     28 H3         -7.5630    0.7470   -1.1590 H         1 QGW1        0.0000
     29 H4          1.2740   -2.2110   -0.3870 H         1 QGW1        0.0000
     30 H5          2.0750    2.4720    0.9910 H         1 QGW1        0.0000
     31 H6          6.4550    2.1960   -1.8660 H         1 QGW1        0.0000
     32 H7          6.3400    2.7890   -0.1920 H         1 QGW1        0.0000
     33 H8          6.8370    1.1100   -0.5090 H         1 QGW1        0.0000
     34 H9          3.5420   -2.3660   -1.0800 H         1 QGW1        0.0000
     35 H10         4.6470   -0.9810   -0.9110 H         1 QGW1        0.0000
     36 H11         4.8120   -1.4080    1.5260 H         1 QGW1        0.0000
     37 H12         3.7070   -2.7940    1.3570 H         1 QGW1        0.0000
     38 H13         5.3120   -3.8870   -0.1850 H         1 QGW1        0.0000
     39 H14         6.4170   -2.5010   -0.0170 H         1 QGW1        0.0000
     40 H15         6.0710   -3.5400    1.3870 H         1 QGW1        0.0000
     41 H16        -3.2670    2.4340    1.7230 H         1 QGW1        0.0000
     42 H17        -2.2980    3.4760    0.6530 H         1 QGW1        0.0000
     43 H18        -3.4860    2.3460   -0.0410 H         1 QGW1        0.0000
     44 H19        -6.6090   -1.6070   -0.8650 H         1 QGW1        0.0000
@<TRIPOS>BOND
     1   10   11 1
     2    9   10 1
     3    7    8 1
     4    4    9 1
     5    7   23 1
     6    5   23 1
     7    7   24 2
     8    4    5 2
     9    5    6 1
    10    3    4 1
    11    3   12 2
    12    1    6 2
    13    1   12 1
    14   12   13 1
    15    1   21 1
    16   15   21 1
    17   13   22 2
    18   13   14 1
    19   14   15 2
    20   15   16 1
    21   14   17 1
    22   17   25 1
    23   17   20 2
    24   19   25 1
    25   18   20 1
    26   18   19 2
    27    2   18 1
    28    2   26 1
    29    2   27 1
    30    2   28 1
    31    3   29 1
    32    6   30 1
    33    8   31 1
    34    8   32 1
    35    8   33 1
    36    9   34 1
    37    9   35 1
    38   10   36 1
    39   10   37 1
    40   11   38 1
    41   11   39 1
    42   11   40 1
    43   16   41 1
    44   16   42 1
    45   16   43 1
    46   19   44 1
@<TRIPOS>SUBSTRUCTURE
     1 QGW1        1 RESIDUE           4 A     QGW     0 ROOT
