# created with PyMOL 2.3.5
@<TRIPOS>MOLECULE
ML5
50 50 1                 
SMALL
USER_CHARGES
@<TRIPOS>ATOM
1	  O4	-7.162	-1.821	0.603	O.3	1	ML50	0.000	
2	  P1	-6.015	-0.692	0.642	P.3	1	ML50	0.000	
3	  O2	-6.628	0.714	0.153	O.3	1	ML50	0.000	
4	  O3	-5.506	-0.554	2.025	O.2	1	ML50	0.000	
5	 C16	-4.648	-1.176	-0.463	C.3	1	ML50	0.000	
6	 C15	-3.504	-0.168	-0.331	C.3	1	ML50	0.000	
7	 C14	-2.357	-0.574	-1.258	C.3	1	ML50	0.000	
8	  N2	-2.800	-0.479	-2.655	N.3	1	ML50	0.000	
9	 C13	-1.184	0.346	-1.039	C.2	1	ML50	0.000	
10	  O1	-0.981	1.263	-1.807	O.2	1	ML50	0.000	
11	  N1	-0.361	0.151	0.010	N.pl3	1	ML50	0.000	
12	  C5	0.782	0.944	0.160	C.2	1	ML50	0.000	
13	  C4	0.754	2.282	-0.214	C.2	1	ML50	0.000	
14	  C3	1.884	3.062	-0.065	C.2	1	ML50	0.000	
15	  C2	3.042	2.513	0.456	C.2	1	ML50	0.000	
16	  C6	1.944	0.397	0.687	C.2	1	ML50	0.000	
17	  C1	3.072	1.182	0.829	C.2	1	ML50	0.000	
18	  C7	4.334	0.589	1.400	C.3	1	ML50	0.000	
19	  C8	5.187	0.016	0.267	C.3	1	ML50	0.000	
20	  C9	6.469	-0.586	0.848	C.3	1	ML50	0.000	
21	 C10	7.322	-1.160	-0.286	C.3	1	ML50	0.000	
22	 C11	8.603	-1.761	0.295	C.3	1	ML50	0.000	
23	 C12	9.456	-2.335	-0.839	C.3	1	ML50	0.000	
24	  H1	-7.923	-1.629	1.168	 H	1	ML50	0.000	
25	  H2	-6.981	0.697	-0.747	 H	1	ML50	0.000	
26	  H3	-4.291	-2.168	-0.186	 H	1	ML50	0.000	
27	  H4	-5.002	-1.192	-1.493	 H	1	ML50	0.000	
28	  H5	-3.861	0.824	-0.607	 H	1	ML50	0.000	
29	  H6	-3.151	-0.153	0.700	 H	1	ML50	0.000	
30	  H7	-2.060	-1.600	-1.040	 H	1	ML50	0.000	
31	  H8	-3.544	-1.135	-2.844	 H	1	ML50	0.000	
32	  H9	-3.081	0.463	-2.882	 H	1	ML50	0.000	
33	 H11	-0.561	-0.539	0.661	 H	1	ML50	0.000	
34	 H12	-0.149	2.711	-0.621	 H	1	ML50	0.000	
35	 H13	1.863	4.102	-0.355	 H	1	ML50	0.000	
36	 H14	3.924	3.125	0.571	 H	1	ML50	0.000	
37	 H15	1.967	-0.641	0.982	 H	1	ML50	0.000	
38	 H16	4.896	1.364	1.922	 H	1	ML50	0.000	
39	 H17	4.078	-0.206	2.100	 H	1	ML50	0.000	
40	 H18	4.626	-0.759	-0.254	 H	1	ML50	0.000	
41	 H19	5.444	0.811	-0.433	 H	1	ML50	0.000	
42	 H20	7.030	0.189	1.369	 H	1	ML50	0.000	
43	 H21	6.212	-1.382	1.547	 H	1	ML50	0.000	
44	 H22	6.760	-1.935	-0.807	 H	1	ML50	0.000	
45	 H23	7.578	-0.364	-0.985	 H	1	ML50	0.000	
46	 H24	9.165	-0.986	0.816	 H	1	ML50	0.000	
47	 H25	8.346	-2.557	0.994	 H	1	ML50	0.000	
48	 H26	8.894	-3.110	-1.360	 H	1	ML50	0.000	
49	 H27	9.713	-1.539	-1.538	 H	1	ML50	0.000	
50	 H28	10.369	-2.763	-0.425	 H	1	ML50	0.000	
@<TRIPOS>BOND
1 2 4 2
2 2 3 1
3 1 2 1
4 2 5 1
5 5 6 1
6 6 7 1
7 7 8 1
8 7 9 1
9 9 10 2
10 9 11 1
11 11 12 1
12 12 16 2
13 12 13 1
14 16 17 1
15 13 14 2
16 17 18 1
17 15 17 2
18 18 19 1
19 22 23 1
20 19 20 1
21 21 22 1
22 20 21 1
23 14 15 1
24 1 24 1
25 3 25 1
26 5 26 1
27 5 27 1
28 6 28 1
29 6 29 1
30 7 30 1
31 8 31 1
32 8 32 1
33 11 33 1
34 13 34 1
35 14 35 1
36 15 36 1
37 16 37 1
38 18 38 1
39 18 39 1
40 19 40 1
41 19 41 1
42 20 42 1
43 20 43 1
44 21 44 1
45 21 45 1
46 22 46 1
47 22 47 1
48 23 48 1
49 23 49 1
50 23 50 1
@<TRIPOS>SUBSTRUCTURE
1	ML50	1	GROUP	1 ****	ML5
