@<TRIPOS>MOLECULE
    QXV
   55    54     0     0     0
SMALL
USER_CHARGES


@<TRIPOS>ATOM
      1 X         114.3620  131.9350  111.9110 N.4        1 QXV      0.000000
      2 X         115.7920  132.1570  112.0630 C.3        1 QXV      0.000000
      3 X         116.1140  132.3180  113.5400 C.2        1 QXV      0.000000
      4 X         115.4350  133.0700  114.2480 O.2        1 QXV      0.000000
      5 X         116.2380  133.3990  111.2880 C.3        1 QXV      0.000000
      6 X         116.0570  133.2910  109.7850 C.3        1 QXV      0.000000
      7 X         116.6260  134.7600  108.9100 S.3        1 QXV      0.000000
      8 X         115.3050  135.9080  109.2910 C.3        1 QXV      0.000000
      9 X         116.3271  131.2891  111.6775 H          1 QXV      0.000000
     10 X         117.2948  133.5693  111.4938 H          1 QXV      0.000000
     11 X         115.6698  134.2571  111.6471 H          1 QXV      0.000000
     12 X         114.9982  133.1456  109.5707 H          1 QXV      0.000000
     13 X         116.6131  132.4262  109.4231 H          1 QXV      0.000000
     14 X         115.5106  136.8688  108.8192 H          1 QXV      0.000000
     15 X         114.3612  135.5133  108.9148 H          1 QXV      0.000000
     16 X         115.2388  136.0403  110.3709 H          1 QXV      0.000000
     17 X         114.0916  131.1119  112.4300 H          1 QXV      0.000000
     18 X         114.1440  131.8031  110.9337 H          1 QXV      0.000000
     19 X         113.8576  132.7360  112.2633 H          1 QXV      0.000000
     20 X         117.1480  131.6230  113.9990 N.am       2 QXV      0.000000
     21 X         117.5400  131.6820  115.4000 C.3        2 QXV      0.000000
     22 X         118.3620  132.9400  115.6480 C.2        2 QXV      0.000000
     23 X         119.3430  133.1820  114.9630 O.2        2 QXV      0.000000
     24 X         118.3250  130.4260  115.8080 C.3        2 QXV      0.000000
     25 X         118.7480  130.5180  117.2590 C.3        2 QXV      0.000000
     26 X         117.4950  129.1760  115.5620 C.3        2 QXV      0.000000
     27 X         117.6739  131.0410  113.3627 H          2 QXV      0.000000
     28 X         116.6369  131.7358  116.0079 H          2 QXV      0.000000
     29 X         119.2226  130.3679  115.1924 H          2 QXV      0.000000
     30 X         117.2037  129.1334  114.5125 H          2 QXV      0.000000
     31 X         118.0846  128.2938  115.8113 H          2 QXV      0.000000
     32 X         116.6018  129.2043  116.1861 H          2 QXV      0.000000
     33 X         119.3032  129.6211  117.5337 H          2 QXV      0.000000
     34 X         119.3817  131.3940  117.3976 H          2 QXV      0.000000
     35 X         117.8638  130.6056  117.8904 H          2 QXV      0.000000
     36 N         117.9630  133.7440  116.6270 N.am       3 QXV      0.000000
     37 CA        118.6870  134.9810  116.9250 C.3        3 QXV      0.000000
     38 C         117.7820  136.0110  117.5910 C.2        3 QXV      0.000000
     39 O         117.9480  137.2130  117.4530 O.2        3 QXV      0.000000
     40 CB        119.9170  134.7340  117.8020 C.3        3 QXV      0.000000
     41 CG        120.9660  135.8260  117.6760 C.3        3 QXV      0.000000
     42 SD        122.5160  135.4210  118.4960 S.3        3 QXV      0.000000
     43 CE        123.4810  136.8840  118.1380 C.3        3 QXV      0.000000
     44 NXT       116.6880  135.5780  118.4280 N.3        3 QXV      0.000000
     45 H         117.1495  133.4988  117.1730 H          3 QXV      0.000000
     46 HA        119.0309  135.4014  115.9800 H          3 QXV      0.000000
     47 HB2       119.5962  134.6793  118.8423 H          3 QXV      0.000000
     48 HB3       120.3648  133.7809  117.5207 H          3 QXV      0.000000
     49 HG2       120.5691  136.7397  118.1183 H          3 QXV      0.000000
     50 HG3       121.1633  136.0038  116.6189 H          3 QXV      0.000000
     51 HE1       124.4716  136.7840  118.5816 H          3 QXV      0.000000
     52 HE2       122.9827  137.7588  118.5557 H          3 QXV      0.000000
     53 HE3       123.5765  137.0011  117.0585 H          3 QXV      0.000000
     54 HXT1      115.9194  135.2751  117.8470 H          3 QXV      0.000000
     55 HXT2      116.3864  136.3448  119.0121 H          3 QXV      0.000000
@<TRIPOS>BOND
     1    1    2 1
     2    1   17 1
     3    1   18 1
     4    1   19 1
     5    2    3 1
     6    2    5 1
     7    2    9 1
     8    3    4 2
     9    3   20 am
    10    5    6 1
    11    5   10 1
    12    5   11 1
    13    6    7 1
    14    6   12 1
    15    6   13 1
    16    7    8 1
    17    8   14 1
    18    8   15 1
    19    8   16 1
    20   20   21 1
    21   20   27 1
    22   21   22 1
    23   21   24 1
    24   21   28 1
    25   22   23 2
    26   22   36 am
    27   24   25 1
    28   24   26 1
    29   24   29 1
    30   25   33 1
    31   25   34 1
    32   25   35 1
    33   26   30 1
    34   26   31 1
    35   26   32 1
    36   36   37 1
    37   36   45 1
    38   37   38 1
    39   37   40 1
    40   37   46 1
    41   38   39 2
    42   38   44 1
    43   40   41 1
    44   40   47 1
    45   40   48 1
    46   41   42 1
    47   41   49 1
    48   41   50 1
    49   42   43 1
    50   43   51 1
    51   43   52 1
    52   43   53 1
    53   44   54 1
    54   44   55 1
