@<TRIPOS>MOLECULE
    QXV
   55    54     0     0     0
SMALL
USER_CHARGES


@<TRIPOS>ATOM
      1 X         -29.7170   25.8890   13.1100 N.4        1 QXV      0.000000
      2 X         -30.1510   25.3040   11.8570 C.3        1 QXV      0.000000
      3 X         -29.6170   26.1480   10.7010 C.2        1 QXV      0.000000
      4 X         -29.6060   27.3300   10.7850 O.2        1 QXV      0.000000
      5 X         -31.6790   25.2910   11.8030 C.3        1 QXV      0.000000
      6 X         -32.2950   24.0210   12.4040 C.3        1 QXV      0.000000
      7 X         -34.0150   24.4090   12.8780 S.3        1 QXV      0.000000
      8 X         -34.9090   22.8850   13.2850 C.3        1 QXV      0.000000
      9 X         -29.7712   24.2856   11.7752 H          1 QXV      0.000000
     10 X         -32.0523   26.1523   12.3569 H          1 QXV      0.000000
     11 X         -31.9951   25.3774   10.7634 H          1 QXV      0.000000
     12 X         -31.7282   23.7137   13.2829 H          1 QXV      0.000000
     13 X         -32.2882   23.2217   11.6629 H          1 QXV      0.000000
     14 X         -35.9336   23.1283   13.5662 H          1 QXV      0.000000
     15 X         -34.9175   22.2261   12.4167 H          1 QXV      0.000000
     16 X         -34.4132   22.3840   14.1164 H          1 QXV      0.000000
     17 X         -28.7077   25.8979   13.1462 H          1 QXV      0.000000
     18 X         -30.0765   25.3419   13.8791 H          1 QXV      0.000000
     19 X         -30.0646   26.8348   13.1782 H          1 QXV      0.000000
     20 X         -29.1200   25.4940    9.4880 N.am       2 QXV      0.000000
     21 X         -28.6220   26.3230    8.3980 C.3        2 QXV      0.000000
     22 X         -29.8040   27.0240    7.7340 C.2        2 QXV      0.000000
     23 X         -30.8880   26.5300    7.7530 O.2        2 QXV      0.000000
     24 X         -27.8740   25.4520    7.3870 C.3        2 QXV      0.000000
     25 X         -26.6860   24.7520    8.0420 C.3        2 QXV      0.000000
     26 X         -28.7960   24.4360    6.7300 C.3        2 QXV      0.000000
     27 X         -29.1225   24.4871    9.4087 H          2 QXV      0.000000
     28 X         -27.9400   27.0724    8.7999 H          2 QXV      0.000000
     29 X         -27.4867   26.1056    6.6054 H          2 QXV      0.000000
     30 X         -29.6371   24.9531    6.2683 H          2 QXV      0.000000
     31 X         -29.1664   23.7411    7.4837 H          2 QXV      0.000000
     32 X         -28.2452   23.8853    5.9675 H          2 QXV      0.000000
     33 X         -26.0373   25.4944    8.5069 H          2 QXV      0.000000
     34 X         -27.0469   24.0586    8.8016 H          2 QXV      0.000000
     35 X         -26.1257   24.2027    7.2854 H          2 QXV      0.000000
     36 N         -29.6150   28.3220    7.0820 N.am       3 QXV      0.000000
     37 CA        -30.7530   28.9690    6.4590 C.3        3 QXV      0.000000
     38 C         -30.9920   30.3420    7.0850 C.2        3 QXV      0.000000
     39 O         -32.0770   30.8140    7.0710 O.2        3 QXV      0.000000
     40 CB        -30.4880   29.1380    4.9590 C.3        3 QXV      0.000000
     41 CG        -29.7260   27.9760    4.3390 C.3        3 QXV      0.000000
     42 SD        -30.8990   26.8300    3.5530 S.3        3 QXV      0.000000
     43 CE        -31.7430   27.6440    2.1610 C.3        3 QXV      0.000000
     44 NXT       -29.8890   31.0660    7.6880 N.3        3 QXV      0.000000
     45 H         -28.7050   28.7599    7.0667 H          3 QXV      0.000000
     46 HA        -31.6395   28.3506    6.5999 H          3 QXV      0.000000
     47 HB2       -31.4465   29.2325    4.4486 H          3 QXV      0.000000
     48 HB3       -29.9170   30.0536    4.8049 H          3 QXV      0.000000
     49 HG2       -29.1705   27.4506    5.1158 H          3 QXV      0.000000
     50 HG3       -29.0316   28.3556    3.5895 H          3 QXV      0.000000
     51 HE1       -32.4418   26.9456    1.7006 H          3 QXV      0.000000
     52 HE2       -31.0052   27.9589    1.4230 H          3 QXV      0.000000
     53 HE3       -32.2871   28.5153    2.5254 H          3 QXV      0.000000
     54 HXT1      -29.6530   30.6429    8.5742 H          3 QXV      0.000000
     55 HXT2      -30.1578   32.0283    7.8354 H          3 QXV      0.000000
@<TRIPOS>BOND
     1    1    2 1
     2    1   17 1
     3    1   18 1
     4    1   19 1
     5    2    3 1
     6    2    5 1
     7    2    9 1
     8    3    4 2
     9    3   20 am
    10    5    6 1
    11    5   10 1
    12    5   11 1
    13    6    7 1
    14    6   12 1
    15    6   13 1
    16    7    8 1
    17    8   14 1
    18    8   15 1
    19    8   16 1
    20   20   21 1
    21   20   27 1
    22   21   22 1
    23   21   24 1
    24   21   28 1
    25   22   23 2
    26   22   36 am
    27   24   25 1
    28   24   26 1
    29   24   29 1
    30   25   33 1
    31   25   34 1
    32   25   35 1
    33   26   30 1
    34   26   31 1
    35   26   32 1
    36   36   37 1
    37   36   45 1
    38   37   38 1
    39   37   40 1
    40   37   46 1
    41   38   39 2
    42   38   44 1
    43   40   41 1
    44   40   47 1
    45   40   48 1
    46   41   42 1
    47   41   49 1
    48   41   50 1
    49   42   43 1
    50   43   51 1
    51   43   52 1
    52   43   53 1
    53   44   54 1
    54   44   55 1
