# created with PyMOL 2.3.5
@<TRIPOS>MOLECULE
NH4
5 4 1                   
SMALL
USER_CHARGES
@<TRIPOS>ATOM
1	   N	0.000	0.000	0.000	N.4	1	NH40	0.000	
2	 HN1	-0.385	-0.545	-0.771	 H	1	NH40	0.000	
3	 HN2	1.020	0.000	0.000	 H	1	NH40	0.000	
4	 HN3	-0.340	0.962	0.000	 H	1	NH40	0.000	
5	 HN4	-0.385	-0.545	0.771	 H	1	NH40	0.000	
@<TRIPOS>BOND
1 1 2 1
2 1 3 1
3 1 4 1
4 1 5 1
@<TRIPOS>SUBSTRUCTURE
1	NH40	1	GROUP	1 ****	NH4
