@<TRIPOS>MOLECULE
XGD
45 49 1 0 0
SMALL
NO_CHARGES


@<TRIPOS>ATOM
      1 N1        125.3030  126.4320  158.2780 N.am      1 XGD489      0.0000
      2 N3        124.5620  126.1540  155.3940 N.ar      1 XGD489      0.0000
      3 C4        124.9690  125.1330  158.8420 C.3       1 XGD489      0.0000
      4 C5        124.4390  127.4490  158.3220 C.2       1 XGD489      0.0000
      5 C6        124.6730  128.5870  157.3780 C.ar      1 XGD489      0.0000
      6 C7        125.1590  129.7850  157.8940 C.ar      1 XGD489      0.0000
      7 C8        125.3780  130.8640  157.0560 C.ar      1 XGD489      0.0000
      8 C10       124.6340  129.5830  155.1710 C.ar      1 XGD489      0.0000
      9 C13       122.5670  125.9890  154.4670 C.ar      1 XGD489      0.0000
     10 C15       124.3460  122.9520  162.9250 C.ar      1 XGD489      0.0000
     11 C17       120.1860  122.0420  160.3660 C.ar      1 XGD489      0.0000
     12 C20       117.9810  124.1540  162.5930 C.ar      1 XGD489      0.0000
     13 C21       116.9420  125.0700  162.4340 C.ar      1 XGD489      0.0000
     14 C22       116.3340  125.6470  163.5340 C.ar      1 XGD489      0.0000
     15 C24       117.7650  124.3890  164.9990 C.ar      1 XGD489      0.0000
     16 C26       116.4900  122.3340  166.6460 C.3       1 XGD489      0.0000
     17 C28       118.3680  123.8080  163.8870 C.ar      1 XGD489      0.0000
     18 N         122.7130  121.0840  160.1750 N.pl3     1 XGD489      0.0000
     19 C         123.6800  121.8040  160.9310 C.ar      1 XGD489      0.0000
     20 O         123.4670  127.4470  159.0700 O.2       1 XGD489      0.0000
     21 C1        124.5320  122.6180  160.1960 C.ar      1 XGD489      0.0000
     22 C11       124.4060  128.4940  156.0030 C.ar      1 XGD489      0.0000
     23 C12       123.7330  125.3160  154.7870 C.ar      1 XGD489      0.0000
     24 C14       125.1580  123.7860  162.1780 C.ar      1 XGD489      0.0000
     25 C16       123.5960  121.9680  162.3050 C.ar      1 XGD489      0.0000
     26 C18       119.4450  122.4600  161.4630 C.ar      1 XGD489      0.0000
     27 C19       118.7270  123.6540  161.4140 C.ar      1 XGD489      0.0000
     28 C2        125.2370  123.6490  160.8020 C.ar      1 XGD489      0.0000
     29 C23       116.7460  125.3150  164.8100 C.ar      1 XGD489      0.0000
     30 C25       118.2470  124.0890  166.3820 C.2       1 XGD489      0.0000
     31 C27       117.9850  122.9460  168.4840 C.3       1 XGD489      0.0000
     32 C29       118.7540  124.3940  160.2400 C.ar      1 XGD489      0.0000
     33 C3        125.8970  124.7080  159.9540 C.3       1 XGD489      0.0000
     34 C30       119.4770  123.9790  159.1390 C.ar      1 XGD489      0.0000
     35 C31       120.2020  122.8050  159.1890 C.ar      1 XGD489      0.0000
     36 C32       121.1080  123.1570  157.0100 C.3       1 XGD489      0.0000
     37 C9        125.1200  130.7630  155.7070 C.ar      1 XGD489      0.0000
     38 N2        123.8810  127.3020  155.4250 N.ar      1 XGD489      0.0000
     39 N4        122.6650  127.2470  154.8720 N.ar      1 XGD489      0.0000
     40 N5        117.6040  123.1580  167.0990 N.am      1 XGD489      0.0000
     41 O1        120.8340  119.7030  159.4610 O.2       1 XGD489      0.0000
     42 O2        121.1220  120.1460  161.8740 O.2       1 XGD489      0.0000
     43 O3        119.2090  124.6920  166.8150 O.2       1 XGD489      0.0000
     44 O4        120.9840  122.3390  158.1710 O.3       1 XGD489      0.0000
     45 S         121.1950  120.5950  160.5190 S.o2      1 XGD489      0.0000
@<TRIPOS>BOND
     1    1    3 1
     2    1    4 am
     3    2   23 ar
     4    2   38 ar
     5    3   33 1
     6    4    5 1
     7    4   20 2
     8    5    6 ar
     9    5   22 ar
    10    6    7 ar
    11    7   37 ar
    12    8   22 ar
    13    8   37 ar
    14    9   23 ar
    15    9   39 ar
    16   10   24 ar
    17   10   25 ar
    18   11   26 ar
    19   11   35 ar
    20   11   45 1
    21   12   13 ar
    22   12   17 ar
    23   12   27 1
    24   13   14 ar
    25   14   29 ar
    26   15   17 ar
    27   15   29 ar
    28   15   30 1
    29   16   40 1
    30   18   19 1
    31   18   45 1
    32   19   21 ar
    33   19   25 ar
    34   21   28 ar
    35   22   38 1
    36   24   28 ar
    37   26   27 ar
    38   27   32 ar
    39   28   33 1
    40   30   40 am
    41   30   43 2
    42   31   40 1
    43   32   34 ar
    44   34   35 ar
    45   35   44 1
    46   36   44 1
    47   38   39 ar
    48   41   45 2
    49   42   45 2
@<TRIPOS>SUBSTRUCTURE
     1 XGD489      1 RESIDUE           4 R     XGD     0 ROOT
