@<TRIPOS>MOLECULE
HZR
24 26 1 0 0
SMALL
NO_CHARGES


@<TRIPOS>ATOM
      1 C14       213.2730  197.4960  206.8120 C.ar      1 HZR938      0.0000
      2 C11       215.2980  195.6540  207.2450 C.ar      1 HZR938      0.0000
      3 C10       215.3030  196.8600  207.9270 C.ar      1 HZR938      0.0000
      4 C12       214.2820  195.3670  206.3450 C.ar      1 HZR938      0.0000
      5 C13       213.2690  196.2890  206.1290 C.ar      1 HZR938      0.0000
      6 C02       220.9670  193.2630  212.1310 C.2       1 HZR938      0.0000
      7 C03       220.3180  194.5820  211.7160 C.2       1 HZR938      0.0000
      8 C05       219.0500  194.5700  210.9360 C.2       1 HZR938      0.0000
      9 C07       218.8280  196.6210  209.3100 C.3       1 HZR938      0.0000
     10 C08       217.6610  196.6650  208.3320 C.3       1 HZR938      0.0000
     11 C09       216.4310  197.1690  208.9200 C.3       1 HZR938      0.0000
     12 C15       214.2890  197.7830  207.7110 C.ar      1 HZR938      0.0000
     13 C16       216.0680  196.5670  210.1940 C.3       1 HZR938      0.0000
     14 C17       217.2230  196.4670  211.1890 C.3       1 HZR938      0.0000
     15 C18       218.4210  193.2730  210.5540 C.3       1 HZR938      0.0000
     16 C19       219.0720  191.9590  210.9720 C.3       1 HZR938      0.0000
     17 C21       220.9460  190.7110  212.1420 C.3       1 HZR938      0.0000
     18 C22       221.0940  189.8150  210.9120 C.3       1 HZR938      0.0000
     19 C23       221.7990  188.4950  211.2250 C.3       1 HZR938      0.0000
     20 C24       221.3630  187.3710  210.2850 C.3       1 HZR938      0.0000
     21 N06       218.4230  195.8090  210.5270 N.pl3     1 HZR938      0.0000
     22 N20       220.3360  191.9720  211.7530 N.am      1 HZR938      0.0000
     23 O01       221.9730  193.2700  212.7550 O.2       1 HZR938      0.0000
     24 CL4       221.0690  196.1370  212.1650 Cl        1 HZR938      0.0000
@<TRIPOS>BOND
     1    1    5 ar
     2    1   12 ar
     3    2    3 ar
     4    2    4 ar
     5    3   11 1
     6    3   12 ar
     7    4    5 ar
     8    6    7 1
     9    6   22 am
    10    6   23 2
    11    7    8 2
    12    7   24 1
    13    8   15 1
    14    8   21 2
    15    9   10 1
    16    9   21 1
    17   10   11 1
    18   11   13 1
    19   13   14 1
    20   14   21 1
    21   15   16 1
    22   16   22 1
    23   17   18 1
    24   17   22 1
    25   18   19 1
    26   19   20 1
@<TRIPOS>SUBSTRUCTURE
     1 HZR938      1 RESIDUE           4 R     HZR     0 ROOT
