@<TRIPOS>MOLECULE
J40
57 57 1 0 0
SMALL
NO_CHARGES


@<TRIPOS>ATOM
      1 O12        83.6630  105.3640   84.7210 O.co2     1 J40520      0.0000
      2 P1         83.8260  104.6340   85.9740 P.3       1 J40520      0.0000
      3 O13        82.4700  103.7790   86.3600 O.3       1 J40520      0.0000
      4 O11        84.0530  105.7280   86.9160 O.co2     1 J40520      0.0000
      5 O6         86.1990  106.2130   86.6530 O.3       1 J40520      0.0000
      6 O1         85.1270  103.6220   85.9170 O.3       1 J40520      0.0000
      7 C1         86.3770  104.1130   85.5240 C.3       1 J40520      0.0000
      8 C6         86.9300  105.0190   86.6300 C.3       1 J40520      0.0000
      9 C2         87.2780  102.9020   85.2690 C.3       1 J40520      0.0000
     10 O2         87.2260  102.0510   86.3790 O.3       1 J40520      0.0000
     11 C3         88.7220  103.3330   85.0370 C.3       1 J40520      0.0000
     12 O3         89.5200  102.2030   84.8240 O.3       1 J40520      0.0000
     13 C4         89.2150  104.0840   86.2660 C.3       1 J40520      0.0000
     14 O4         90.5710  104.3970   86.1200 O.3       1 J40520      0.0000
     15 P4         91.5740  104.1940   87.4120 P.3       1 J40520      0.0000
     16 O41        92.4230  105.3480   87.6960 O.co2     1 J40520      0.0000
     17 O42        92.5080  103.0810   87.2760 O.co2     1 J40520      0.0000
     18 O43        90.8850  103.9360   88.6740 O.co2     1 J40520      0.0000
     19 C5         88.3990  105.3640   86.3980 C.3       1 J40520      0.0000
     20 O5         88.8770  106.1070   87.4840 O.3       1 J40520      0.0000
     21 C7         81.2160  104.3470   86.1090 C.3       1 J40520      0.0000
     22 C8         80.5070  104.6170   87.4370 C.3       1 J40520      0.0000
     23 C9         80.0460  103.2870   88.0330 C.3       1 J40520      0.0000
     24 O16        81.3850  105.2540   88.3240 O.3       1 J40520      0.0000
     25 C10        81.5390  106.6300   88.1100 C.2       1 J40520      0.0000
     26 O17        81.7400  107.0470   87.0200 O.2       1 J40520      0.0000
     27 O18        80.7670  103.0000   89.1980 O.3       1 J40520      0.0000
     28 C11        80.0430  103.1480   90.3860 C.2       1 J40520      0.0000
     29 O19        79.2860  104.0510   90.5190 O.2       1 J40520      0.0000
     30 C12        81.4560  107.6110   89.2780 C.3       1 J40520      0.0000
     31 C13        82.3330  108.8220   88.9640 C.3       1 J40520      0.0000
     32 C14        82.3070  109.8040   90.1340 C.3       1 J40520      0.0000
     33 C15        82.1470  111.2270   89.6040 C.3       1 J40520      0.0000
     34 C16        80.7110  111.5570   89.2040 C.3       1 J40520      0.0000
     35 C17        80.5350  112.9980   88.7280 C.3       1 J40520      0.0000
     36 C18        80.3420  113.9160   89.9330 C.3       1 J40520      0.0000
     37 C19        80.3560  115.3950   89.5560 C.3       1 J40520      0.0000
     38 C20        79.6580  116.2710   90.5950 C.3       1 J40520      0.0000
     39 C21        80.0090  117.7420   90.3710 C.3       1 J40520      0.0000
     40 C22        80.1110  118.1460   88.9010 C.3       1 J40520      0.0000
     41 C23        78.7880  118.0420   88.1430 C.3       1 J40520      0.0000
     42 C24        78.0660  119.3860   88.1870 C.3       1 J40520      0.0000
     43 C31        80.2290  102.1360   91.5160 C.3       1 J40520      0.0000
     44 C32        81.3580  102.6010   92.4330 C.3       1 J40520      0.0000
     45 C33        81.2830  101.8500   93.7620 C.3       1 J40520      0.0000
     46 C34        82.6910  101.6980   94.3350 C.3       1 J40520      0.0000
     47 C35        82.6280  101.0060   95.6950 C.3       1 J40520      0.0000
     48 C36        82.3540  102.0390   96.7880 C.3       1 J40520      0.0000
     49 C37        81.9680  101.3280   98.0840 C.3       1 J40520      0.0000
     50 C38        83.1930  100.6420   98.6860 C.3       1 J40520      0.0000
     51 C39        83.4120  101.1500  100.1100 C.3       1 J40520      0.0000
     52 C40        84.7400  100.6180  100.6470 C.3       1 J40520      0.0000
     53 C25        78.1950  120.1770   86.8860 C.3       1 J40520      0.0000
     54 C26        79.6390  120.5300   86.5410 C.3       1 J40520      0.0000
     55 C41        84.4820   99.5820  101.7390 C.3       1 J40520      0.0000
     56 C42        83.8080   98.3500  101.1390 C.3       1 J40520      0.0000
     57 C43        84.0330   97.1530  102.0610 C.3       1 J40520      0.0000
@<TRIPOS>BOND
     1    1    2 1
     2    2    3 1
     3    2    4 1
     4    2    6 1
     5    3   21 1
     6    5    8 1
     7    6    7 1
     8    7    8 1
     9    7    9 1
    10    8   19 1
    11    9   10 1
    12    9   11 1
    13   11   12 1
    14   11   13 1
    15   13   14 1
    16   13   19 1
    17   14   15 1
    18   15   16 1
    19   15   17 1
    20   15   18 1
    21   19   20 1
    22   21   22 1
    23   22   23 1
    24   22   24 1
    25   23   27 1
    26   24   25 1
    27   25   26 2
    28   25   30 1
    29   27   28 1
    30   28   29 2
    31   28   43 1
    32   30   31 1
    33   31   32 1
    34   32   33 1
    35   33   34 1
    36   34   35 1
    37   35   36 1
    38   36   37 1
    39   37   38 1
    40   38   39 1
    41   39   40 1
    42   40   41 1
    43   41   42 1
    44   42   53 1
    45   43   44 1
    46   44   45 1
    47   45   46 1
    48   46   47 1
    49   47   48 1
    50   48   49 1
    51   49   50 1
    52   50   51 1
    53   51   52 1
    54   52   55 1
    55   53   54 1
    56   55   56 1
    57   56   57 1
@<TRIPOS>SUBSTRUCTURE
     1 J40520      1 RESIDUE           4 R     J40     0 ROOT
