@<TRIPOS>MOLECULE
J40
57 57 1 0 0
SMALL
NO_CHARGES


@<TRIPOS>ATOM
      1 O12        84.3620  107.1750   86.2510 O.co2     1 J40521      0.0000
      2 P1         85.5870  106.5150   86.6950 P.3       1 J40521      0.0000
      3 O13        85.2500  105.2600   87.7120 O.3       1 J40521      0.0000
      4 O11        86.2560  107.6050   87.4010 O.co2     1 J40521      0.0000
      5 O6         88.3360  107.2170   87.1460 O.3       1 J40521      0.0000
      6 O1         86.4850  105.9960   85.4110 O.3       1 J40521      0.0000
      7 C1         87.7670  105.4720   85.6260 C.3       1 J40521      0.0000
      8 C6         88.2740  105.8240   87.0210 C.3       1 J40521      0.0000
      9 C2         87.7380  103.9570   85.4740 C.3       1 J40521      0.0000
     10 O2         87.0400  103.3850   86.5420 O.3       1 J40521      0.0000
     11 C3         89.1840  103.4880   85.4880 C.3       1 J40521      0.0000
     12 O3         89.2370  102.1160   85.2170 O.3       1 J40521      0.0000
     13 C4         89.7830  103.7640   86.8640 C.3       1 J40521      0.0000
     14 O4         91.1230  103.3600   86.8350 O.3       1 J40521      0.0000
     15 P4         92.3100  104.3300   87.4380 P.3       1 J40521      0.0000
     16 O41        92.7550  105.3780   86.5220 O.co2     1 J40521      0.0000
     17 O42        93.5250  103.5990   87.7760 O.co2     1 J40521      0.0000
     18 O43        91.9720  105.0360   88.6690 O.co2     1 J40521      0.0000
     19 C5         89.6720  105.2450   87.2530 C.3       1 J40521      0.0000
     20 O5         89.9500  105.3700   88.6190 O.3       1 J40521      0.0000
     21 C7         84.1820  104.4100   87.4010 C.3       1 J40521      0.0000
     22 C8         82.8560  105.0900   87.7390 C.3       1 J40521      0.0000
     23 C9         81.7620  104.0310   87.8740 C.3       1 J40521      0.0000
     24 O16        82.9780  105.7970   88.9420 O.3       1 J40521      0.0000
     25 C10        82.4240  107.0820   88.9150 C.2       1 J40521      0.0000
     26 O17        81.5390  107.3380   88.1670 O.2       1 J40521      0.0000
     27 O18        81.8260  103.4310   89.1370 O.3       1 J40521      0.0000
     28 C11        80.7100  103.6850   89.9420 C.2       1 J40521      0.0000
     29 O19        80.2210  104.7640   89.9520 O.2       1 J40521      0.0000
     30 C12        82.9620  108.1600   89.8530 C.3       1 J40521      0.0000
     31 C13        81.8270  108.6800   90.7320 C.3       1 J40521      0.0000
     32 C14        82.3250  109.8620   91.5600 C.3       1 J40521      0.0000
     33 C15        81.7740  111.1610   90.9750 C.3       1 J40521      0.0000
     34 C16        82.1330  111.3490   89.5030 C.3       1 J40521      0.0000
     35 C17        82.1790  112.8170   89.0870 C.3       1 J40521      0.0000
     36 C18        80.8120  113.2420   88.5560 C.3       1 J40521      0.0000
     37 C19        80.9080  114.3200   87.4780 C.3       1 J40521      0.0000
     38 C20        79.6020  115.0850   87.2760 C.3       1 J40521      0.0000
     39 C21        79.1250  115.6520   88.6110 C.3       1 J40521      0.0000
     40 C22        80.2700  116.1050   89.5140 C.3       1 J40521      0.0000
     41 C23        80.8820  117.4360   89.0820 C.3       1 J40521      0.0000
     42 C24        79.9280  118.1540   88.1300 C.3       1 J40521      0.0000
     43 C31        80.1230  102.5720   90.8090 C.3       1 J40521      0.0000
     44 C32        80.5990  102.7430   92.2500 C.3       1 J40521      0.0000
     45 C33        81.5170  101.5810   92.6280 C.3       1 J40521      0.0000
     46 C34        82.1160  101.8420   94.0080 C.3       1 J40521      0.0000
     47 C35        82.8650  100.6000   94.4860 C.3       1 J40521      0.0000
     48 C36        81.9870   99.8240   95.4660 C.3       1 J40521      0.0000
     49 C37        82.5820   99.9190   96.8690 C.3       1 J40521      0.0000
     50 C38        82.4800  101.3580   97.3690 C.3       1 J40521      0.0000
     51 C39        82.6000  101.3770   98.8920 C.3       1 J40521      0.0000
     52 C40        84.0550  101.1430   99.2900 C.3       1 J40521      0.0000
     53 C25        78.8470  118.9490   88.8580 C.3       1 J40521      0.0000
     54 C26        79.4050  120.1350   89.6410 C.3       1 J40521      0.0000
     55 C41        84.1970  101.2760  100.8040 C.3       1 J40521      0.0000
     56 C42        83.8620   99.9410  101.4660 C.3       1 J40521      0.0000
     57 C43        85.0100   98.9600  101.2410 C.3       1 J40521      0.0000
@<TRIPOS>BOND
     1    1    2 1
     2    2    3 1
     3    2    4 1
     4    2    6 1
     5    3   21 1
     6    5    8 1
     7    6    7 1
     8    7    8 1
     9    7    9 1
    10    8   19 1
    11    9   10 1
    12    9   11 1
    13   11   12 1
    14   11   13 1
    15   13   14 1
    16   13   19 1
    17   14   15 1
    18   15   16 1
    19   15   17 1
    20   15   18 1
    21   19   20 1
    22   21   22 1
    23   22   23 1
    24   22   24 1
    25   23   27 1
    26   24   25 1
    27   25   26 2
    28   25   30 1
    29   27   28 1
    30   28   29 2
    31   28   43 1
    32   30   31 1
    33   31   32 1
    34   32   33 1
    35   33   34 1
    36   34   35 1
    37   35   36 1
    38   36   37 1
    39   37   38 1
    40   38   39 1
    41   39   40 1
    42   40   41 1
    43   41   42 1
    44   42   53 1
    45   43   44 1
    46   44   45 1
    47   45   46 1
    48   46   47 1
    49   47   48 1
    50   48   49 1
    51   49   50 1
    52   50   51 1
    53   51   52 1
    54   52   55 1
    55   53   54 1
    56   55   56 1
    57   56   57 1
@<TRIPOS>SUBSTRUCTURE
     1 J40521      1 RESIDUE           4 R     J40     0 ROOT
