@<TRIPOS>MOLECULE
J40
57 57 1 0 0
SMALL
NO_CHARGES


@<TRIPOS>ATOM
      1 O12        84.5600  106.2500   89.9280 O.co2     1 J40524      0.0000
      2 P1         84.9190  106.0310   91.3260 P.3       1 J40524      0.0000
      3 O13        83.7230  105.2380   92.1390 O.3       1 J40524      0.0000
      4 O11        85.0670  107.4040   91.8040 O.co2     1 J40524      0.0000
      5 O6         87.4920  107.5660   92.5380 O.3       1 J40524      0.0000
      6 O1         86.3320  105.1940   91.4620 O.3       1 J40524      0.0000
      7 C1         87.5160  105.7570   90.9760 C.3       1 J40524      0.0000
      8 C6         88.2300  106.4450   92.1400 C.3       1 J40524      0.0000
      9 C2         88.3520  104.6250   90.3710 C.3       1 J40524      0.0000
     10 O2         88.3420  103.5280   91.2420 O.3       1 J40524      0.0000
     11 C3         89.7990  105.0380   90.0960 C.3       1 J40524      0.0000
     12 O3         90.5300  103.9010   89.7340 O.3       1 J40524      0.0000
     13 C4         90.4310  105.6570   91.3390 C.3       1 J40524      0.0000
     14 O4         91.7520  106.0240   91.0620 O.3       1 J40524      0.0000
     15 P4         92.9010  105.7540   92.2130 P.3       1 J40524      0.0000
     16 O41        93.6930  106.9330   92.5550 O.co2     1 J40524      0.0000
     17 O42        93.8910  104.7460   91.8460 O.co2     1 J40524      0.0000
     18 O43        92.3700  105.2910   93.4910 O.co2     1 J40524      0.0000
     19 C5         89.6270  106.8910   91.7270 C.3       1 J40524      0.0000
     20 O5         90.2480  107.5380   92.8020 O.3       1 J40524      0.0000
     21 C7         82.4060  105.6890   92.0110 C.3       1 J40524      0.0000
     22 C8         81.9310  106.2560   93.3470 C.3       1 J40524      0.0000
     23 C9         81.4570  105.1160   94.2470 C.3       1 J40524      0.0000
     24 O16        82.9850  106.9360   93.9670 O.3       1 J40524      0.0000
     25 C10        82.9100  108.3290   93.8500 C.2       1 J40524      0.0000
     26 O17        82.7630  108.8290   92.7860 O.2       1 J40524      0.0000
     27 O18        82.5560  104.5160   94.8720 O.3       1 J40524      0.0000
     28 C11        82.6790  104.8280   96.2300 C.2       1 J40524      0.0000
     29 O19        82.2140  105.8330   96.6520 O.2       1 J40524      0.0000
     30 C12        83.0160  109.2090   95.0930 C.3       1 J40524      0.0000
     31 C13        83.6500  110.5440   94.7070 C.3       1 J40524      0.0000
     32 C14        83.7840  111.4280   95.9440 C.3       1 J40524      0.0000
     33 C15        83.5170  112.8800   95.5540 C.3       1 J40524      0.0000
     34 C16        82.2190  113.0510   94.7690 C.3       1 J40524      0.0000
     35 C17        82.0080  114.4780   94.2690 C.3       1 J40524      0.0000
     36 C18        81.5880  115.3710   95.4340 C.3       1 J40524      0.0000
     37 C19        81.8610  116.8510   95.1720 C.3       1 J40524      0.0000
     38 C20        80.9660  117.7750   95.9960 C.3       1 J40524      0.0000
     39 C21        81.3330  119.2300   95.7110 C.3       1 J40524      0.0000
     40 C22        81.3750  119.5570   94.2200 C.3       1 J40524      0.0000
     41 C23        80.0140  119.4220   93.5390 C.3       1 J40524      0.0000
     42 C24        79.2910  120.7670   93.5620 C.3       1 J40524      0.0000
     43 C31        83.4110  103.8740   97.1730 C.3       1 J40524      0.0000
     44 C32        83.5390  104.5230   98.5490 C.3       1 J40524      0.0000
     45 C33        83.7820  103.4490   99.6090 C.3       1 J40524      0.0000
     46 C34        85.1860  103.6200  100.1850 C.3       1 J40524      0.0000
     47 C35        85.2560  102.9790  101.5690 C.3       1 J40524      0.0000
     48 C36        84.5250  103.8640  102.5760 C.3       1 J40524      0.0000
     49 C37        84.3070  103.0890  103.8730 C.3       1 J40524      0.0000
     50 C38        85.6550  102.6480  104.4380 C.3       1 J40524      0.0000
     51 C39        85.7660  103.0850  105.8980 C.3       1 J40524      0.0000
     52 C40        87.1960  102.8680  106.3900 C.3       1 J40524      0.0000
     53 C25        79.1720  121.4110   92.1820 C.3       1 J40524      0.0000
     54 C26        80.5230  121.7450   91.5530 C.3       1 J40524      0.0000
     55 C41        87.1880  101.9650  107.6230 C.3       1 J40524      0.0000
     56 C42        86.6110  100.5980  107.2610 C.3       1 J40524      0.0000
     57 C43        87.0470   99.5680  108.3000 C.3       1 J40524      0.0000
@<TRIPOS>BOND
     1    1    2 1
     2    2    3 1
     3    2    4 1
     4    2    6 1
     5    3   21 1
     6    5    8 1
     7    6    7 1
     8    7    8 1
     9    7    9 1
    10    8   19 1
    11    9   10 1
    12    9   11 1
    13   11   12 1
    14   11   13 1
    15   13   14 1
    16   13   19 1
    17   14   15 1
    18   15   16 1
    19   15   17 1
    20   15   18 1
    21   19   20 1
    22   21   22 1
    23   22   23 1
    24   22   24 1
    25   23   27 1
    26   24   25 1
    27   25   26 2
    28   25   30 1
    29   27   28 1
    30   28   29 2
    31   28   43 1
    32   30   31 1
    33   31   32 1
    34   32   33 1
    35   33   34 1
    36   34   35 1
    37   35   36 1
    38   36   37 1
    39   37   38 1
    40   38   39 1
    41   39   40 1
    42   40   41 1
    43   41   42 1
    44   42   53 1
    45   43   44 1
    46   44   45 1
    47   45   46 1
    48   46   47 1
    49   47   48 1
    50   48   49 1
    51   49   50 1
    52   50   51 1
    53   51   52 1
    54   52   55 1
    55   53   54 1
    56   55   56 1
    57   56   57 1
@<TRIPOS>SUBSTRUCTURE
     1 J40524      1 RESIDUE           4 R     J40     0 ROOT
