# created with PyMOL 2.3.5
@<TRIPOS>MOLECULE
7OS
74 78 1 0 0
SMALL
USER_CHARGES


@<TRIPOS>ATOM
      1 O3          6.6610    0.0530    0.7270 O.3       1 7OS1        0.0000
      2 C7         -7.2780   -0.3420    0.9320 C.3       1 7OS1        0.0000
      3 C6         -6.0580   -0.9430    0.2300 C.3       1 7OS1        0.0000
      4 C5         -3.9080    0.3230    0.0580 C.2       1 7OS1        0.0000
      5 C4         -5.2170    0.1640   -0.3510 C.2       1 7OS1        0.0000
      6 C3         -5.7550    1.0200   -1.2930 C.2       1 7OS1        0.0000
      7 C2         -4.9840    2.0360   -1.8240 C.2       1 7OS1        0.0000
      8 C1         -3.6710    2.2020   -1.4160 C.2       1 7OS1        0.0000
      9 O1         -9.2480   -1.1560    2.1780 O.3       1 7OS1        0.0000
     10 O2         -1.8420    1.4630   -0.0560 O.3       1 7OS1        0.0000
     11 C8         -8.1200   -1.4490    1.5120 C.2       1 7OS1        0.0000
     12 C9         -6.8140    0.5880    2.0540 C.3       1 7OS1        0.0000
     13 C10        -6.5230   -1.8740   -0.8920 C.3       1 7OS1        0.0000
     14 C11        -6.2780   -3.3730   -0.7130 C.3       1 7OS1        0.0000
     15 C12        -5.4440   -2.5770   -1.7180 C.3       1 7OS1        0.0000
     16 C13        -2.8640    3.3290   -2.0100 C.3       1 7OS1        0.0000
     17 C14        -1.3730    3.0730   -1.7780 C.3       1 7OS1        0.0000
     18 C15        -1.1710    2.7000   -0.3040 C.3       1 7OS1        0.0000
     19 C16         0.3220    2.5440   -0.0120 C.3       1 7OS1        0.0000
     20 C17         0.5180    2.1460    1.4540 C.3       1 7OS1        0.0000
     21 C18         2.0090    1.9320    1.7250 C.3       1 7OS1        0.0000
     22 C19         2.3880    1.2590   -0.5720 C.3       1 7OS1        0.0000
     23 C20         0.9090    1.4530   -0.9110 C.3       1 7OS1        0.0000
     24 C21         3.9160    0.5500    1.1660 C.3       1 7OS1        0.0000
     25 C22         4.4070   -0.5320    0.2400 C.2       1 7OS1        0.0000
     26 C23         5.7690   -0.7300    0.0640 C.2       1 7OS1        0.0000
     27 C24         6.2200   -1.7270   -0.7890 C.2       1 7OS1        0.0000
     28 C25         5.3120   -2.5210   -1.4620 C.2       1 7OS1        0.0000
     29 C26         3.9530   -2.3230   -1.2860 C.2       1 7OS1        0.0000
     30 C27         3.5020   -1.3320   -0.4310 C.2       1 7OS1        0.0000
     31 C28         8.0480   -0.2070    0.4980 C.3       1 7OS1        0.0000
     32 C29         3.9990    0.0590    2.6130 C.3       1 7OS1        0.0000
     33 F3          8.8200    0.6830    1.2520 F         1 7OS1        0.0000
     34 F1          8.3450   -1.5200    0.8780 F         1 7OS1        0.0000
     35 F2          8.3360   -0.0380   -0.8610 F         1 7OS1        0.0000
     36 F           3.0660   -3.1000   -1.9450 F         1 7OS1        0.0000
     37 N           2.5220    0.8790    0.8400 N.3       1 7OS1        0.0000
     38 C          -3.1280    1.3440   -0.4760 C.2       1 7OS1        0.0000
     39 O          -7.7790   -2.6010    1.3790 O.co2     1 7OS1        0.0000
     40 H7         -7.8688    0.2243    0.2120 H         1 7OS1        0.0000
     41 H6         -5.4667   -1.5088    0.9500 H         1 7OS1        0.0000
     42 H5         -3.4885   -0.3467    0.7942 H         1 7OS1        0.0000
     43 H3         -6.7785    0.8947   -1.6142 H         1 7OS1        0.0000
     44 H2         -5.4069    2.7035   -2.5602 H         1 7OS1        0.0000
     45 H10        -7.4327   -1.5871   -1.4195 H         1 7OS1        0.0000
     46 H112       -5.8187   -3.7443    0.2031 H         1 7OS1        0.0000
     47 H113       -7.0360   -4.0233   -1.1496 H         1 7OS1        0.0000
     48 H122       -5.5891   -2.7286   -2.7876 H         1 7OS1        0.0000
     49 H123       -4.4178   -2.3729   -1.4123 H         1 7OS1        0.0000
     50 H132       -3.1486    4.2679   -1.5351 H         1 7OS1        0.0000
     51 H133       -3.0594    3.3901   -3.0806 H         1 7OS1        0.0000
     52 H142       -0.8041    3.9730   -2.0114 H         1 7OS1        0.0000
     53 H143       -1.0385    2.2527   -2.4131 H         1 7OS1        0.0000
     54 H15        -1.5902    3.4791    0.3327 H         1 7OS1        0.0000
     55 H16         0.8316    3.4881   -0.2045 H         1 7OS1        0.0000
     56 H172        0.1408    2.9388    2.1000 H         1 7OS1        0.0000
     57 H173       -0.0248    1.2227    1.6561 H         1 7OS1        0.0000
     58 H182        2.1500    1.6337    2.7639 H         1 7OS1        0.0000
     59 H183        2.5493    2.8598    1.5369 H         1 7OS1        0.0000
     60 H192        2.8043    0.4720   -1.2008 H         1 7OS1        0.0000
     61 H193        2.9267    2.1896   -0.7504 H         1 7OS1        0.0000
     62 H202        0.3725    0.5185   -0.7468 H         1 7OS1        0.0000
     63 H203        0.8110    1.7502   -1.9551 H         1 7OS1        0.0000
     64 H21         4.5362    1.4385    1.0477 H         1 7OS1        0.0000
     65 H24         7.2799   -1.8821   -0.9266 H         1 7OS1        0.0000
     66 H25         5.6625   -3.2971   -2.1262 H         1 7OS1        0.0000
     67 H27         2.4417   -1.1840   -0.2883 H         1 7OS1        0.0000
     68 H           1.9653    0.0499    0.9911 H         1 7OS1        0.0000
     69 H291        4.8278   -0.6419    2.7124 H         1 7OS1        0.0000
     70 H292        4.1607    0.9089    3.2761 H         1 7OS1        0.0000
     71 H293        3.0675   -0.4393    2.8816 H         1 7OS1        0.0000
     72 H91        -6.2050    1.3887    1.6344 H         1 7OS1        0.0000
     73 H92        -6.2232    0.0217    2.7740 H         1 7OS1        0.0000
     74 H93        -7.6829    1.0162    2.5537 H         1 7OS1        0.0000
@<TRIPOS>BOND
     1   11   39 2
     2    2   11 1
     3    9   11 1
     4    2   12 1
     5    2    3 1
     6   13   14 1
     7   14   15 1
     8    3   13 1
     9   13   15 1
    10    3    5 1
    11    5    6 2
    12    6    7 1
    13    4    5 1
    14    7    8 2
    15    4   38 2
    16    8   38 1
    17    8   16 1
    18   10   38 1
    19   16   17 1
    20   10   18 1
    21   17   18 1
    22   18   19 1
    23   19   20 1
    24   19   23 1
    25   20   21 1
    26   22   23 1
    27   21   37 1
    28   22   37 1
    29   24   37 1
    30   24   32 1
    31   24   25 1
    32   25   30 2
    33   25   26 1
    34   29   30 1
    35   31   34 1
    36    1   26 1
    37    1   31 1
    38   26   27 2
    39   29   36 1
    40   28   29 2
    41   31   35 1
    42   31   33 1
    43   27   28 1
    44   40    2 1
    45   41    3 1
    46   42    4 1
    47   43    6 1
    48   44    7 1
    49   45   13 1
    50   46   14 1
    51   47   14 1
    52   48   15 1
    53   49   15 1
    54   50   16 1
    55   51   16 1
    56   52   17 1
    57   53   17 1
    58   54   18 1
    59   55   19 1
    60   56   20 1
    61   57   20 1
    62   58   21 1
    63   59   21 1
    64   60   22 1
    65   61   22 1
    66   62   23 1
    67   63   23 1
    68   64   24 1
    69   65   27 1
    70   66   28 1
    71   67   30 1
    72   68   37 1
    73   69   32 1
    74   70   32 1
    75   71   32 1
    76   72   12 1
    77   73   12 1
    78   74   12 1
@<TRIPOS>SUBSTRUCTURE
     1 7OS1        1 RESIDUE           4 A     7OS     0 ROOT
