# created with PyMOL 2.3.5
@<TRIPOS>MOLECULE
ZDG
62 65 1                 
SMALL
USER_CHARGES
@<TRIPOS>ATOM
1	 CAE	8.011	-1.367	-0.171	C.3	1	ZDG0	0.000	
2	 CAD	7.277	-2.166	0.908	C.3	1	ZDG0	0.000	
3	 CAA	5.830	-1.919	0.803	C.1	1	ZDG0	0.000	
4	 CAB	4.676	-1.722	0.718	C.1	1	ZDG0	0.000	
5	 CAC	3.268	-1.482	0.615	C.2	1	ZDG0	0.000	
6	 CAN	2.775	-0.627	-0.374	C.2	1	ZDG0	0.000	
7	 CAM	1.422	-0.397	-0.472	C.2	1	ZDG0	0.000	
8	 CAJ	2.386	-2.107	1.501	C.2	1	ZDG0	0.000	
9	 CAK	1.033	-1.876	1.402	C.2	1	ZDG0	0.000	
10	 CAL	0.541	-1.017	0.416	C.2	1	ZDG0	0.000	
11	 CAO	-0.912	-0.769	0.310	C.2	1	ZDG0	0.000	
12	 CAS	-1.895	-1.713	0.201	C.2	1	ZDG0	0.000	
13	 CBB	-1.723	-3.210	0.163	C.3	1	ZDG0	0.000	
14	 NAP	-1.533	0.449	0.310	N.pl3	1	ZDG0	0.000	
15	 CAT	-0.881	1.684	0.407	C.2	1	ZDG0	0.000	
16	 CAY	-1.183	2.704	-0.488	C.2	1	ZDG0	0.000	
17	 CLA	-2.369	2.448	-1.729	Cl	1	ZDG0	0.000	
18	 CAX	-0.538	3.922	-0.389	C.2	1	ZDG0	0.000	
19	 CAW	0.408	4.127	0.601	C.2	1	ZDG0	0.000	
20	 CLB	1.221	5.656	0.719	Cl	1	ZDG0	0.000	
21	 CAV	0.710	3.113	1.493	C.2	1	ZDG0	0.000	
22	 CAU	0.064	1.895	1.402	C.2	1	ZDG0	0.000	
23	 NAQ	-2.804	0.292	0.203	N.2	1	ZDG0	0.000	
24	 CAR	-3.106	-0.990	0.131	C.2	1	ZDG0	0.000	
25	 CBC	-4.461	-1.564	0.002	C.2	1	ZDG0	0.000	
26	 OBE	-4.608	-2.769	-0.056	O.2	1	ZDG0	0.000	
27	 NBD	-5.534	-0.750	-0.053	N.pl3	1	ZDG0	0.000	
28	 NBF	-6.787	-1.281	-0.173	N.pl3	1	ZDG0	0.000	
29	 CBG	-7.631	-0.898	0.967	C.3	1	ZDG0	0.000	
30	 CBH	-8.975	-1.625	0.874	C.3	1	ZDG0	0.000	
31	 CBI	-9.662	-1.252	-0.442	C.3	1	ZDG0	0.000	
32	 CBJ	-8.742	-1.616	-1.610	C.3	1	ZDG0	0.000	
33	 CBK	-7.405	-0.889	-1.446	C.3	1	ZDG0	0.000	
34	  H1	7.661	-1.678	-1.155	 H	1	ZDG0	0.000	
35	  H2	7.813	-0.304	-0.033	 H	1	ZDG0	0.000	
36	  H4	7.476	-3.229	0.771	 H	1	ZDG0	0.000	
37	  H5	7.628	-1.855	1.892	 H	1	ZDG0	0.000	
38	  H6	3.457	-0.148	-1.061	 H	1	ZDG0	0.000	
39	  H7	1.041	0.264	-1.237	 H	1	ZDG0	0.000	
40	  H8	2.766	-2.771	2.263	 H	1	ZDG0	0.000	
41	  H9	0.351	-2.359	2.086	 H	1	ZDG0	0.000	
42	 H10	-1.762	-3.606	1.178	 H	1	ZDG0	0.000	
43	 H11	-2.522	-3.653	-0.431	 H	1	ZDG0	0.000	
44	 H12	-0.760	-3.453	-0.285	 H	1	ZDG0	0.000	
45	 H13	-0.771	4.715	-1.084	 H	1	ZDG0	0.000	
46	 H14	1.449	3.275	2.264	 H	1	ZDG0	0.000	
47	 H15	0.301	1.105	2.099	 H	1	ZDG0	0.000	
48	 H16	-5.417	0.212	-0.007	 H	1	ZDG0	0.000	
49	 H17	-7.133	-1.173	1.896	 H	1	ZDG0	0.000	
50	 H18	-7.799	0.178	0.949	 H	1	ZDG0	0.000	
51	 H19	-8.809	-2.702	0.905	 H	1	ZDG0	0.000	
52	 H20	-9.607	-1.330	1.712	 H	1	ZDG0	0.000	
53	 H21	-10.600	-1.800	-0.532	 H	1	ZDG0	0.000	
54	 H22	-9.864	-0.181	-0.456	 H	1	ZDG0	0.000	
55	 H23	-8.573	-2.692	-1.618	 H	1	ZDG0	0.000	
56	 H24	-9.208	-1.314	-2.548	 H	1	ZDG0	0.000	
57	 H25	-7.574	0.188	-1.452	 H	1	ZDG0	0.000	
58	 H26	-6.742	-1.158	-2.269	 H	1	ZDG0	0.000	
59	  O1	9.416	-1.607	-0.068	O.3	1	ZDG0	0.000	
60	  N1	10.191	-0.910	-1.027	N.pl3	1	ZDG0	0.000	
61	  O2	9.646	-0.185	-1.840	O.2	1	ZDG0	0.000	
62	  O3	11.402	-1.035	-1.038	O.2	1	ZDG0	0.000	
@<TRIPOS>BOND
1 19 20 1
2 19 21 2
3 18 19 1
4 21 22 1
5 16 18 2
6 15 22 2
7 15 16 1
8 16 17 1
9 14 15 1
10 2 3 1
11 1 2 1
12 3 4 3
13 6 7 2
14 5 6 1
15 14 23 1
16 11 14 1
17 4 5 1
18 7 10 1
19 5 8 2
20 23 24 2
21 10 11 1
22 9 10 2
23 8 9 1
24 11 12 2
25 12 24 1
26 24 25 1
27 12 13 1
28 25 27 1
29 27 28 1
30 28 33 1
31 32 33 1
32 25 26 2
33 28 29 1
34 29 30 1
35 31 32 1
36 30 31 1
37 1 34 1
38 1 35 1
39 2 36 1
40 2 37 1
41 6 38 1
42 7 39 1
43 8 40 1
44 9 41 1
45 13 42 1
46 13 43 1
47 13 44 1
48 18 45 1
49 21 46 1
50 22 47 1
51 27 48 1
52 29 49 1
53 29 50 1
54 30 51 1
55 30 52 1
56 31 53 1
57 31 54 1
58 32 55 1
59 32 56 1
60 33 57 1
61 33 58 1
62 1 59 1
63 59 60 1
64 60 61 2
65 60 62 1
@<TRIPOS>SUBSTRUCTURE
1	ZDG0	1	GROUP	1 ****	ZDG
