# created with PyMOL 2.3.5
@<TRIPOS>MOLECULE
CY8
72 77 1 0 0
SMALL
USER_CHARGES


@<TRIPOS>ATOM
      1 O01         2.8900   -0.3160   -0.9260 O.3       1 CY81        0.0000
      2 O02        -8.1240   -0.8330   -0.3340 O.3       1 CY81        0.0000
      3 N03         5.7460    0.2920    1.1560 N.3       1 CY81        0.0000
      4 C04        -2.5940    0.0790    0.6260 C.3       1 CY81        0.0000
      5 C05        -1.9850    1.1020   -0.3730 C.3       1 CY81        0.0000
      6 C06        -0.5920    1.2970    0.2320 C.3       1 CY81        0.0000
      7 C07        -3.8620   -0.4820    0.0300 C.3       1 CY81        0.0000
      8 C08         2.2050    0.3050    0.1910 C.3       1 CY81        0.0000
      9 C09        -0.1780   -0.1310    0.5950 C.2       1 CY81        0.0000
     10 C10        -1.4530   -0.9100    0.8610 C.3       1 CY81        0.0000
     11 C11         0.4120    1.7800   -0.8170 C.3       1 CY81        0.0000
     12 C12         3.2180    0.3690    1.3650 C.3       1 CY81        0.0000
     13 C13         1.8080    1.7200   -0.1960 C.3       1 CY81        0.0000
     14 C14         1.0470   -0.5560    0.5940 C.2       1 CY81        0.0000
     15 C15        -2.8960    2.3200   -0.3340 C.3       1 CY81        0.0000
     16 C16         4.4680   -0.2960    0.7820 C.3       1 CY81        0.0000
     17 C17        -4.6940    0.6380   -0.5500 C.2       1 CY81        0.0000
     18 C18         4.2680   -0.0180   -0.7340 C.3       1 CY81        0.0000
     19 C19        -4.6790   -1.1950    1.1110 C.3       1 CY81        0.0000
     20 C20        -4.2770    1.8430   -0.7150 C.2       1 CY81        0.0000
     21 C21        -3.5060   -1.4770   -1.0770 C.3       1 CY81        0.0000
     22 C22        -6.1030    0.3090   -1.0100 C.3       1 CY81        0.0000
     23 C23        -6.0230   -1.6420    0.5360 C.3       1 CY81        0.0000
     24 C24         5.2750   -0.8750   -1.4780 C.3       1 CY81        0.0000
     25 C25        -6.8330   -0.4200    0.1200 C.3       1 CY81        0.0000
     26 C26         3.5050    1.8210    1.7530 C.3       1 CY81        0.0000
     27 C27         1.3170   -1.9770    1.0170 C.3       1 CY81        0.0000
     28 C28         6.6730   -0.4030   -1.0430 C.3       1 CY81        0.0000
     29 C29         6.8250   -0.4490    0.4750 C.3       1 CY81        0.0000
     30 C30         7.7290   -1.3090   -1.6800 C.3       1 CY81        0.0000
     31 H1         -8.6930   -0.1050   -0.6180 H         1 CY81        0.0000
     32 H2          5.8720    0.2770    2.1570 H         1 CY81        0.0000
     33 H4         -2.8270    0.5950    1.5570 H         1 CY81        0.0000
     34 H5         -1.9230    0.6880   -1.3800 H         1 CY81        0.0000
     35 H6         -0.6220    1.9450    1.1080 H         1 CY81        0.0000
     36 H7         -1.4690   -1.2660    1.8910 H         1 CY81        0.0000
     37 H8         -1.5330   -1.7490    0.1700 H         1 CY81        0.0000
     38 H9          0.3710    1.1330   -1.6930 H         1 CY81        0.0000
     39 H10         0.1800    2.8060   -1.1050 H         1 CY81        0.0000
     40 H11         2.8480   -0.1920    2.2240 H         1 CY81        0.0000
     41 H12         1.8260    2.3490    0.6950 H         1 CY81        0.0000
     42 H13         2.5320    2.1060   -0.9140 H         1 CY81        0.0000
     43 H14        -2.9110    2.7420    0.6710 H         1 CY81        0.0000
     44 H15        -2.5490    3.0680   -1.0480 H         1 CY81        0.0000
     45 H16         4.4650   -1.3660    0.9950 H         1 CY81        0.0000
     46 H17         4.4540    1.0360   -0.9440 H         1 CY81        0.0000
     47 H18        -4.1290   -2.0670    1.4650 H         1 CY81        0.0000
     48 H19        -4.8510   -0.5140    1.9440 H         1 CY81        0.0000
     49 H20        -4.9660    2.5630   -1.1320 H         1 CY81        0.0000
     50 H21        -2.9110   -2.2880   -0.6590 H         1 CY81        0.0000
     51 H22        -4.4210   -1.8830   -1.5090 H         1 CY81        0.0000
     52 H23        -2.9330   -0.9680   -1.8530 H         1 CY81        0.0000
     53 H24        -6.6320    1.2300   -1.2530 H         1 CY81        0.0000
     54 H25        -6.0590   -0.3320   -1.8910 H         1 CY81        0.0000
     55 H26        -5.8530   -2.2800   -0.3320 H         1 CY81        0.0000
     56 H27        -6.5750   -2.1990    1.2930 H         1 CY81        0.0000
     57 H28         5.1370   -1.9240   -1.2140 H         1 CY81        0.0000
     58 H29         5.1540   -0.7430   -2.5530 H         1 CY81        0.0000
     59 H30        -6.9450    0.2490    0.9730 H         1 CY81        0.0000
     60 H31         2.6070    2.2670    2.1810 H         1 CY81        0.0000
     61 H32         4.3100    1.8480    2.4880 H         1 CY81        0.0000
     62 H33         3.8030    2.3810    0.8670 H         1 CY81        0.0000
     63 H34         1.4910   -2.0100    2.0920 H         1 CY81        0.0000
     64 H35         0.4580   -2.6000    0.7680 H         1 CY81        0.0000
     65 H36         2.1990   -2.3500    0.4950 H         1 CY81        0.0000
     66 H37         6.8270    0.6200   -1.3850 H         1 CY81        0.0000
     67 H38         7.7850   -0.0120    0.7490 H         1 CY81        0.0000
     68 H39         6.8030   -1.4890    0.8020 H         1 CY81        0.0000
     69 H40         7.6450   -1.2560   -2.7660 H         1 CY81        0.0000
     70 H41         8.7220   -0.9790   -1.3760 H         1 CY81        0.0000
     71 H42         7.5710   -2.3370   -1.3530 H         1 CY81        0.0000
     72 HN2         5.7647    1.2518    0.8420 H         1 CY81        0.0000
@<TRIPOS>BOND
     1    3   29 1
     2    3   16 1
     3   12   26 1
     4   28   29 1
     5   28   30 1
     6   24   28 1
     7   11   13 1
     8    8   13 1
     9   16   18 1
    10   18   24 1
    11    1   18 1
    12    6   11 1
    13   12   16 1
    14    8   12 1
    15    1    8 1
    16    8   14 1
    17    5   15 1
    18   15   20 1
    19    5    6 1
    20    6    9 1
    21    4    5 1
    22   17   20 2
    23    9   14 2
    24   14   27 1
    25    9   10 1
    26    4   10 1
    27    4    7 1
    28    7   17 1
    29   17   22 1
    30    7   21 1
    31    7   19 1
    32   22   25 1
    33   19   23 1
    34    2   25 1
    35   23   25 1
    36    2   31 1
    37    3   32 1
    38    4   33 1
    39    5   34 1
    40    6   35 1
    41   10   36 1
    42   10   37 1
    43   11   38 1
    44   11   39 1
    45   12   40 1
    46   13   41 1
    47   13   42 1
    48   15   43 1
    49   15   44 1
    50   16   45 1
    51   18   46 1
    52   19   47 1
    53   19   48 1
    54   20   49 1
    55   21   50 1
    56   21   51 1
    57   21   52 1
    58   22   53 1
    59   22   54 1
    60   23   55 1
    61   23   56 1
    62   24   57 1
    63   24   58 1
    64   25   59 1
    65   26   60 1
    66   26   61 1
    67   26   62 1
    68   27   63 1
    69   27   64 1
    70   27   65 1
    71   28   66 1
    72   29   67 1
    73   29   68 1
    74   30   69 1
    75   30   70 1
    76   30   71 1
    77   72    3 1
@<TRIPOS>SUBSTRUCTURE
     1 CY81        1 RESIDUE           4 A     CY8     0 ROOT
