# created with PyMOL 2.3.5
@<TRIPOS>MOLECULE
9JU
66 70 1 0 0
SMALL
USER_CHARGES


@<TRIPOS>ATOM
      1 CAW        -4.3830    1.9160   -0.6170 C.3       1 9JU1        0.0000
      2 CAX        -5.8990    1.9730   -0.4160 C.3       1 9JU1        0.0000
      3 CBE        -6.5630    0.8600   -1.2270 C.3       1 9JU1        0.0000
      4 CAY        -6.2230    1.7870    1.0680 C.3       1 9JU1        0.0000
      5 CAZ        -5.6970    0.4290    1.5380 C.3       1 9JU1        0.0000
      6 CBA        -4.1820    0.3720    1.3370 C.3       1 9JU1        0.0000
      7 CBB        -6.3620   -0.6840    0.7260 C.3       1 9JU1        0.0000
      8 CBC        -6.0370   -0.4980   -0.7570 C.3       1 9JU1        0.0000
      9 CBD        -4.5220   -0.5550   -0.9580 C.3       1 9JU1        0.0000
     10 CAV        -3.8570    0.5590   -0.1470 C.3       1 9JU1        0.0000
     11 NAT        -2.4060    0.5040   -0.3400 N.pl3     1 9JU1        0.0000
     12 CAM        -1.7210   -0.6040    0.0070 C.2       1 9JU1        0.0000
     13 OAU        -2.3080   -1.5590    0.4790 O.2       1 9JU1        0.0000
     14 CAJ        -0.2580   -0.6600   -0.1880 C.2       1 9JU1        0.0000
     15 CAK         0.5870   -1.7460    0.1260 C.2       1 9JU1        0.0000
     16 CAL         0.1870   -3.0720    0.7210 C.3       1 9JU1        0.0000
     17 NAI         0.5000    0.2940   -0.6920 N.2       1 9JU1        0.0000
     18 NAH         1.7290   -0.0780   -0.7220 N.pl3     1 9JU1        0.0000
     19 CAN         2.8410    0.7350   -1.2200 C.3       1 9JU1        0.0000
     20 CAO         3.4250    1.5600   -0.0720 C.3       1 9JU1        0.0000
     21 CAP         4.5870    2.4090   -0.5930 C.3       1 9JU1        0.0000
     22 CAQ         5.1700    3.2340    0.5550 C.3       1 9JU1        0.0000
     23 CAR         6.3320    4.0830    0.0350 C.3       1 9JU1        0.0000
     24 OAS         6.8770    4.8540    1.1070 O.3       1 9JU1        0.0000
     25 CAG         1.8450   -1.3420   -0.2240 C.2       1 9JU1        0.0000
     26 CAE         3.0930   -2.1270   -0.0910 C.2       1 9JU1        0.0000
     27 CAD         3.3560   -2.8310    1.0840 C.2       1 9JU1        0.0000
     28 CAC         4.5210   -3.5610    1.2010 C.2       1 9JU1        0.0000
     29 CAB         5.4280   -3.5950    0.1570 C.2       1 9JU1        0.0000
     30 CAA         5.1730   -2.8980   -1.0110 C.2       1 9JU1        0.0000
     31 CAF         4.0090   -2.1700   -1.1430 C.2       1 9JU1        0.0000
     32 H1         -4.1520    2.0490   -1.6740 H         1 9JU1        0.0000
     33 H2         -3.9090    2.7100   -0.0390 H         1 9JU1        0.0000
     34 H3         -6.2730    2.9400   -0.7510 H         1 9JU1        0.0000
     35 H4         -7.6430    0.9000   -1.0840 H         1 9JU1        0.0000
     36 H5         -6.3320    0.9930   -2.2840 H         1 9JU1        0.0000
     37 H6         -5.7500    2.5800    1.6460 H         1 9JU1        0.0000
     38 H7         -7.3030    1.8270    1.2110 H         1 9JU1        0.0000
     39 H8         -5.9290    0.2960    2.5950 H         1 9JU1        0.0000
     40 H9         -3.7080    1.1660    1.9150 H         1 9JU1        0.0000
     41 H10        -3.8070   -0.5950    1.6720 H         1 9JU1        0.0000
     42 H11        -5.9870   -1.6510    1.0620 H         1 9JU1        0.0000
     43 H12        -7.4420   -0.6440    0.8700 H         1 9JU1        0.0000
     44 H13        -6.5110   -1.2910   -1.3350 H         1 9JU1        0.0000
     45 H14        -4.1470   -1.5220   -0.6230 H         1 9JU1        0.0000
     46 H15        -4.2900   -0.4220   -2.0150 H         1 9JU1        0.0000
     47 H16        -1.9370    1.2650   -0.7160 H         1 9JU1        0.0000
     48 H17        -0.0500   -3.7730   -0.0790 H         1 9JU1        0.0000
     49 H18         1.0100   -3.4660    1.3170 H         1 9JU1        0.0000
     50 H19        -0.6890   -2.9350    1.3560 H         1 9JU1        0.0000
     51 H20         3.6140    0.0820   -1.6280 H         1 9JU1        0.0000
     52 H21         2.4810    1.4040   -2.0020 H         1 9JU1        0.0000
     53 H22         2.6530    2.2120    0.3360 H         1 9JU1        0.0000
     54 H23         3.7850    0.8910    0.7090 H         1 9JU1        0.0000
     55 H24         5.3590    1.7560   -1.0010 H         1 9JU1        0.0000
     56 H25         4.2260    3.0780   -1.3750 H         1 9JU1        0.0000
     57 H26         4.3980    3.8860    0.9630 H         1 9JU1        0.0000
     58 H27         5.5310    2.5650    1.3370 H         1 9JU1        0.0000
     59 H28         7.1040    3.4300   -0.3730 H         1 9JU1        0.0000
     60 H29         5.9710    4.7520   -0.7470 H         1 9JU1        0.0000
     61 H30         7.6190    5.4170    0.8490 H         1 9JU1        0.0000
     62 H31         2.6490   -2.8050    1.9000 H         1 9JU1        0.0000
     63 H32         4.7260   -4.1070    2.1100 H         1 9JU1        0.0000
     64 H33         6.3380   -4.1680    0.2540 H         1 9JU1        0.0000
     65 H34         5.8850   -2.9280   -1.8220 H         1 9JU1        0.0000
     66 H35         3.8080   -1.6300   -2.0570 H         1 9JU1        0.0000
@<TRIPOS>BOND
     1    2    4 1
     2    4    5 1
     3    2    3 1
     4    1    2 1
     5    3    8 1
     6    5    7 1
     7    5    6 1
     8    1   10 1
     9    7    8 1
    10   23   24 1
    11   22   23 1
    12    6   10 1
    13    8    9 1
    14    9   10 1
    15   10   11 1
    16   21   22 1
    17   11   12 1
    18   20   21 1
    19   12   13 2
    20   12   14 1
    21   14   17 2
    22   17   18 1
    23   14   15 1
    24   19   20 1
    25   18   19 1
    26   18   25 1
    27   15   16 1
    28   15   25 2
    29   25   26 1
    30   26   31 2
    31   30   31 1
    32   26   27 1
    33   29   30 2
    34   27   28 2
    35   28   29 1
    36    1   32 1
    37    1   33 1
    38    2   34 1
    39    3   35 1
    40    3   36 1
    41    4   37 1
    42    4   38 1
    43    5   39 1
    44    6   40 1
    45    6   41 1
    46    7   42 1
    47    7   43 1
    48    8   44 1
    49    9   45 1
    50    9   46 1
    51   11   47 1
    52   16   48 1
    53   16   49 1
    54   16   50 1
    55   19   51 1
    56   19   52 1
    57   20   53 1
    58   20   54 1
    59   21   55 1
    60   21   56 1
    61   22   57 1
    62   22   58 1
    63   23   59 1
    64   23   60 1
    65   24   61 1
    66   27   62 1
    67   28   63 1
    68   29   64 1
    69   30   65 1
    70   31   66 1
@<TRIPOS>SUBSTRUCTURE
     1 9JU1        1 RESIDUE           4 A     9JU     0 ROOT
