# created with PyMOL 2.3.5
@<TRIPOS>MOLECULE
2YB
69 72 1                 
SMALL
USER_CHARGES
@<TRIPOS>ATOM
1	  C4	-4.346	-0.667	0.836	C.2	1	2YB0	0.000	
2	  C6	-6.286	0.394	-0.037	C.3	1	2YB0	0.000	
3	  C7	-7.544	1.119	0.445	C.3	1	2YB0	0.000	
4	  C8	-8.381	1.547	-0.763	C.3	1	2YB0	0.000	
5	 C10	-10.693	2.813	-1.757	C.3	1	2YB0	0.000	
6	 C13	-3.540	-1.083	1.887	C.2	1	2YB0	0.000	
7	 C15	-1.489	-2.207	2.772	C.3	1	2YB0	0.000	
8	 C17	-0.718	-2.738	0.037	C.2	1	2YB0	0.000	
9	 C20	1.644	-4.081	-0.494	C.2	1	2YB0	0.000	
10	 C21	1.680	-2.834	0.105	C.2	1	2YB0	0.000	
11	 C22	3.003	-2.214	0.472	C.3	1	2YB0	0.000	
12	 C24	4.677	-0.805	-0.459	C.2	1	2YB0	0.000	
13	 C26	6.579	-0.292	0.905	C.2	1	2YB0	0.000	
14	 C28	8.375	1.286	-0.228	C.3	1	2YB0	0.000	
15	  C1	-2.393	-1.886	-2.161	C.3	1	2YB0	0.000	
16	  C2	-2.797	-1.601	-0.737	C.2	1	2YB0	0.000	
17	  C3	-3.973	-0.930	-0.475	C.2	1	2YB0	0.000	
18	  O5	-5.505	-0.005	1.091	O.3	1	2YB0	0.000	
19	  S9	-9.872	2.407	-0.191	S.O2	1	2YB0	0.000	
20	 O11	-10.684	1.482	0.519	O.2	1	2YB0	0.000	
21	 O12	-9.482	3.617	0.443	O.2	1	2YB0	0.000	
22	 C14	-2.363	-1.755	1.631	C.2	1	2YB0	0.000	
23	 C16	-1.983	-2.015	0.315	C.2	1	2YB0	0.000	
24	 C18	-0.748	-3.996	-0.561	C.2	1	2YB0	0.000	
25	 C19	0.433	-4.661	-0.823	C.2	1	2YB0	0.000	
26	 O23	3.486	-1.437	-0.626	O.3	1	2YB0	0.000	
27	 C25	5.365	-0.934	0.739	C.2	1	2YB0	0.000	
28	 C27	7.101	0.470	-0.116	C.2	1	2YB0	0.000	
29	 C30	8.585	2.147	1.019	C.3	1	2YB0	0.000	
30	 C31	9.844	2.960	0.862	C.2	1	2YB0	0.000	
31	 O32	10.231	3.794	1.840	O.3	1	2YB0	0.000	
32	 O33	10.507	2.860	-0.144	O.co2	1	2YB0	0.000	
33	 C34	8.084	2.167	-1.466	C.3	1	2YB0	0.000	
34	 O35	7.124	1.383	-2.195	O.3	1	2YB0	0.000	
35	 C36	6.427	0.603	-1.324	C.2	1	2YB0	0.000	
36	 C37	5.204	-0.041	-1.486	C.2	1	2YB0	0.000	
37	 C38	0.506	-2.158	0.366	C.2	1	2YB0	0.000	
38	  H1	-6.572	-0.487	-0.611	 H	1	2YB0	0.000	
39	  H2	-5.700	1.064	-0.666	 H	1	2YB0	0.000	
40	  H3	-8.131	0.450	1.074	 H	1	2YB0	0.000	
41	  H4	-7.259	2.000	1.020	 H	1	2YB0	0.000	
42	  H5	-7.794	2.216	-1.392	 H	1	2YB0	0.000	
43	  H6	-8.667	0.666	-1.337	 H	1	2YB0	0.000	
44	  H7	-10.911	1.895	-2.302	 H	1	2YB0	0.000	
45	  H8	-11.623	3.344	-1.553	 H	1	2YB0	0.000	
46	  H9	-10.039	3.445	-2.357	 H	1	2YB0	0.000	
47	 H10	-3.835	-0.881	2.906	 H	1	2YB0	0.000	
48	 H11	-1.782	-3.211	3.079	 H	1	2YB0	0.000	
49	 H12	-0.447	-2.214	2.451	 H	1	2YB0	0.000	
50	 H13	-1.605	-1.522	3.612	 H	1	2YB0	0.000	
51	 H14	2.565	-4.607	-0.697	 H	1	2YB0	0.000	
52	 H15	2.875	-1.572	1.343	 H	1	2YB0	0.000	
53	 H16	3.722	-3.001	0.703	 H	1	2YB0	0.000	
54	 H17	7.117	-0.387	1.837	 H	1	2YB0	0.000	
55	 H18	9.236	0.641	-0.403	 H	1	2YB0	0.000	
56	 H19	-1.792	-1.059	-2.540	 H	1	2YB0	0.000	
57	 H20	-1.808	-2.805	-2.195	 H	1	2YB0	0.000	
58	 H21	-3.285	-1.999	-2.776	 H	1	2YB0	0.000	
59	 H22	-4.604	-0.609	-1.291	 H	1	2YB0	0.000	
60	 H23	-1.694	-4.450	-0.818	 H	1	2YB0	0.000	
61	 H24	0.410	-5.637	-1.286	 H	1	2YB0	0.000	
62	 H25	4.955	-1.533	1.539	 H	1	2YB0	0.000	
63	 H26	7.734	2.817	1.145	 H	1	2YB0	0.000	
64	 H27	8.674	1.504	1.894	 H	1	2YB0	0.000	
65	 H28	11.046	4.294	1.694	 H	1	2YB0	0.000	
66	 H29	7.655	3.123	-1.167	 H	1	2YB0	0.000	
67	 H30	8.989	2.318	-2.054	 H	1	2YB0	0.000	
68	 H31	4.663	0.056	-2.416	 H	1	2YB0	0.000	
69	 H32	0.536	-1.181	0.825	 H	1	2YB0	0.000	
@<TRIPOS>BOND
1 9 25 2
2 24 25 1
3 9 10 1
4 8 24 2
5 10 11 1
6 10 37 2
7 8 37 1
8 8 23 1
9 15 16 1
10 11 26 1
11 16 23 2
12 22 23 1
13 16 17 1
14 12 26 1
15 7 22 1
16 6 22 2
17 1 17 2
18 12 27 2
19 12 36 1
20 13 27 1
21 30 32 2
22 35 36 2
23 1 6 1
24 1 18 1
25 29 30 1
26 14 29 1
27 13 28 2
28 28 35 1
29 34 35 1
30 30 31 1
31 14 28 1
32 2 18 1
33 33 34 1
34 2 3 1
35 14 33 1
36 3 4 1
37 5 19 1
38 4 19 1
39 19 20 2
40 19 21 2
41 2 38 1
42 2 39 1
43 3 40 1
44 3 41 1
45 4 42 1
46 4 43 1
47 5 44 1
48 5 45 1
49 5 46 1
50 6 47 1
51 7 48 1
52 7 49 1
53 7 50 1
54 9 51 1
55 11 52 1
56 11 53 1
57 13 54 1
58 14 55 1
59 15 56 1
60 15 57 1
61 15 58 1
62 17 59 1
63 24 60 1
64 25 61 1
65 27 62 1
66 29 63 1
67 29 64 1
68 31 65 1
69 33 66 1
70 33 67 1
71 36 68 1
72 37 69 1
@<TRIPOS>SUBSTRUCTURE
1	2YB0	1	GROUP	1 ****	2YB
