# created with PyMOL 2.3.5
@<TRIPOS>MOLECULE
JEV
40 42 1 0 0
SMALL
USER_CHARGES


@<TRIPOS>ATOM
      1 C4         -2.1280   -0.2010   -0.4820 C.3       1 JEV1        0.0000
      2 C3         -4.4330    0.3170    0.1150 C.2       1 JEV1        0.0000
      3 C2         -5.4620    0.8530    1.0780 C.3       1 JEV1        0.0000
      4 O2         -4.7790   -0.1150   -0.9640 O.2       1 JEV1        0.0000
      5 C1         -6.8540    0.7360    0.4540 C.3       1 JEV1        0.0000
      6 O1          4.3990    1.7680    0.4000 O.3       1 JEV1        0.0000
      7 C7          0.1200   -2.1470   -1.0290 C.3       1 JEV1        0.0000
      8 C8          1.0690   -2.7370    0.0360 C.3       1 JEV1        0.0000
      9 C9          2.1360   -1.6840    0.2430 C.2       1 JEV1        0.0000
     10 C10         3.3910   -1.7760    0.8210 C.2       1 JEV1        0.0000
     11 C11         4.2050   -0.6670    0.9080 C.2       1 JEV1        0.0000
     12 C12         3.7730    0.5590    0.4090 C.2       1 JEV1        0.0000
     13 C15         3.7750    2.6180   -0.5770 C.3       1 JEV1        0.0000
     14 C14         2.3280    2.0730   -0.6300 C.3       1 JEV1        0.0000
     15 C13         2.5170    0.6390   -0.1750 C.2       1 JEV1        0.0000
     16 C16         1.6990   -0.4700   -0.2580 C.2       1 JEV1        0.0000
     17 C6          0.3080   -0.6270   -0.8350 C.3       1 JEV1        0.0000
     18 C5         -0.7370   -0.0840    0.1420 C.3       1 JEV1        0.0000
     19 N1         -3.1290    0.3190    0.4540 N.pl3     1 JEV1        0.0000
     20 H1         -2.1620    0.3750   -1.4070 H         1 JEV1        0.0000
     21 H2         -2.3430   -1.2470   -0.6980 H         1 JEV1        0.0000
     22 H3         -5.4290    0.2770    2.0030 H         1 JEV1        0.0000
     23 H4         -5.2480    1.9000    1.2940 H         1 JEV1        0.0000
     24 H5         -6.8870    1.3120   -0.4710 H         1 JEV1        0.0000
     25 H6         -7.0680   -0.3110    0.2380 H         1 JEV1        0.0000
     26 H7         -7.5980    1.1230    1.1500 H         1 JEV1        0.0000
     27 H8          0.4250   -2.4500   -2.0300 H         1 JEV1        0.0000
     28 H9         -0.9120   -2.4380   -0.8320 H         1 JEV1        0.0000
     29 H10         0.5290   -2.9160    0.9650 H         1 JEV1        0.0000
     30 H11         1.5160   -3.6620   -0.3280 H         1 JEV1        0.0000
     31 H12         3.7330   -2.7240    1.2090 H         1 JEV1        0.0000
     32 H13         5.1810   -0.7500    1.3630 H         1 JEV1        0.0000
     33 H14         3.7840    3.6570   -0.2480 H         1 JEV1        0.0000
     34 H15         4.2640    2.5170   -1.5460 H         1 JEV1        0.0000
     35 H16         1.6810    2.6180    0.0570 H         1 JEV1        0.0000
     36 H17         1.9340    2.1120   -1.6460 H         1 JEV1        0.0000
     37 H18         0.2350   -0.1120   -1.7920 H         1 JEV1        0.0000
     38 H19        -0.5220    0.9630    0.3580 H         1 JEV1        0.0000
     39 H20        -0.7030   -0.6600    1.0670 H         1 JEV1        0.0000
     40 H21        -2.8520    0.6660    1.3170 H         1 JEV1        0.0000
@<TRIPOS>BOND
     1    2    4 2
     2    3    5 1
     3    2    3 1
     4    2   19 1
     5    1   19 1
     6    1   18 1
     7   17   18 1
     8    7   17 1
     9    7    8 1
    10   16   17 1
    11    8    9 1
    12    9   16 2
    13   15   16 1
    14    9   10 1
    15   14   15 1
    16   12   15 2
    17   10   11 2
    18   13   14 1
    19   11   12 1
    20    6   12 1
    21    6   13 1
    22    1   20 1
    23    1   21 1
    24    3   22 1
    25    3   23 1
    26    5   24 1
    27    5   25 1
    28    5   26 1
    29    7   27 1
    30    7   28 1
    31    8   29 1
    32    8   30 1
    33   10   31 1
    34   11   32 1
    35   13   33 1
    36   13   34 1
    37   14   35 1
    38   14   36 1
    39   17   37 1
    40   18   38 1
    41   18   39 1
    42   19   40 1
@<TRIPOS>SUBSTRUCTURE
     1 JEV1        1 RESIDUE           4 A     JEV     0 ROOT
