# created with PyMOL 2.3.5
@<TRIPOS>MOLECULE
7LD
50 53 1 0 0
SMALL
USER_CHARGES


@<TRIPOS>ATOM
      1 H01        -0.2130   -2.5920    0.8180 H         1 7LD1        0.0000
      2 N1          5.1570    0.3140    0.4480 N.pl3     1 7LD1        0.0000
      3 N3         -3.8790    0.5030    0.2910 N.pl3     1 7LD1        0.0000
      4 C4          4.0580    2.5640   -0.1240 C.2       1 7LD1        0.0000
      5 C5          2.7910    3.0640   -0.4010 C.2       1 7LD1        0.0000
      6 C6          1.7040    0.9420   -0.1740 C.2       1 7LD1        0.0000
      7 C7          3.3160   -0.9410    0.4350 C.2       1 7LD1        0.0000
      8 C8          4.6320   -0.9570    0.6180 C.2       1 7LD1        0.0000
      9 C10        -0.6070    0.2870    0.0430 C.2       1 7LD1        0.0000
     10 C13        -1.3240   -1.9210   -0.7820 C.3       1 7LD1        0.0000
     11 C15         2.2170   -1.9700    0.4930 C.3       1 7LD1        0.0000
     12 C17        -3.6020    0.6300    1.7240 C.3       1 7LD1        0.0000
     13 C20        -4.9520    2.4720   -0.6860 C.3       1 7LD1        0.0000
     14 N2         -0.0630   -2.4490   -0.2520 N.3       1 7LD1        0.0000
     15 C12         0.2600   -3.7480   -0.8580 C.3       1 7LD1        0.0000
     16 C11         1.0480   -1.5160   -0.3930 C.3       1 7LD1        0.0000
     17 C3          2.9930    0.4450    0.1160 C.2       1 7LD1        0.0000
     18 C1          4.1680    1.2000    0.1430 C.2       1 7LD1        0.0000
     19 C2          1.6320    2.2920   -0.4310 C.2       1 7LD1        0.0000
     20 C9          0.6440   -0.0840   -0.1640 C.2       1 7LD1        0.0000
     21 C14        -1.7350   -0.7100    0.0620 C.3       1 7LD1        0.0000
     22 C16        -2.9760   -0.0830   -0.5200 C.2       1 7LD1        0.0000
     23 O1         -3.1610   -0.1050   -1.7180 O.2       1 7LD1        0.0000
     24 C19        -5.1360    1.0130   -0.2610 C.3       1 7LD1        0.0000
     25 C18        -4.2170   -0.5570    2.4690 C.3       1 7LD1        0.0000
     26 H1          6.0950    0.5420    0.5380 H         1 7LD1        0.0000
     27 H2          4.9250    3.2080   -0.1170 H         1 7LD1        0.0000
     28 H3          2.7000    4.1210   -0.6060 H         1 7LD1        0.0000
     29 H4          5.2100   -1.8360    0.8640 H         1 7LD1        0.0000
     30 H5         -0.8260    1.3320    0.2040 H         1 7LD1        0.0000
     31 H6         -1.1860   -1.6150   -1.8190 H         1 7LD1        0.0000
     32 H7         -2.0980   -2.6870   -0.7260 H         1 7LD1        0.0000
     33 H8          2.5960   -2.9270    0.1330 H         1 7LD1        0.0000
     34 H9          1.8730   -2.0780    1.5210 H         1 7LD1        0.0000
     35 H10        -2.5250    0.6430    1.8870 H         1 7LD1        0.0000
     36 H11        -4.0370    1.5570    2.0970 H         1 7LD1        0.0000
     37 H12        -5.8880    2.8510   -1.0960 H         1 7LD1        0.0000
     38 H13        -4.6660    3.0690    0.1800 H         1 7LD1        0.0000
     39 H14        -4.1720    2.5330   -1.4440 H         1 7LD1        0.0000
     40 H16         1.1360   -4.1710   -0.3660 H         1 7LD1        0.0000
     41 H17        -0.5860   -4.4240   -0.7390 H         1 7LD1        0.0000
     42 H18         0.4700   -3.6120   -1.9190 H         1 7LD1        0.0000
     43 H19         1.3890   -1.5820   -1.4260 H         1 7LD1        0.0000
     44 H20         0.6800    2.7510   -0.6550 H         1 7LD1        0.0000
     45 H21        -1.9290   -1.0250    1.0870 H         1 7LD1        0.0000
     46 H22        -5.4220    0.4160   -1.1260 H         1 7LD1        0.0000
     47 H23        -5.9170    0.9520    0.4980 H         1 7LD1        0.0000
     48 H24        -5.2940   -0.5700    2.3060 H         1 7LD1        0.0000
     49 H25        -3.7820   -1.4850    2.0960 H         1 7LD1        0.0000
     50 H26        -4.0110   -0.4630    3.5350 H         1 7LD1        0.0000
@<TRIPOS>BOND
     1    2   18 1
     2    2   26 1
     3    3   24 1
     4    4    5 2
     5    4   27 1
     6    5   28 1
     7    6   19 2
     8    7   17 1
     9    2    8 1
    10    7    8 2
    11    8   29 1
    12    9   30 1
    13   10   21 1
    14   10   31 1
    15   10   32 1
    16    7   11 1
    17   11   16 1
    18   11   33 1
    19   11   34 1
    20    3   12 1
    21   12   25 1
    22   12   35 1
    23   12   36 1
    24   13   24 1
    25   13   37 1
    26   13   38 1
    27   13   39 1
    28    1   14 1
    29   10   14 1
    30   14   16 1
    31   14   15 1
    32   15   40 1
    33   15   41 1
    34   15   42 1
    35   16   20 1
    36   16   43 1
    37    6   17 1
    38   17   18 2
    39    4   18 1
    40    5   19 1
    41   19   44 1
    42    6   20 1
    43    9   20 2
    44    9   21 1
    45   21   22 1
    46   21   45 1
    47    3   22 1
    48   22   23 2
    49   24   46 1
    50   24   47 1
    51   25   48 1
    52   25   49 1
    53   25   50 1
@<TRIPOS>SUBSTRUCTURE
     1 7LD1        1 RESIDUE           4 A     7LD     0 ROOT
