# created with PyMOL 2.3.5
@<TRIPOS>MOLECULE
SUV
55 59 1 0 0
SMALL
USER_CHARGES


@<TRIPOS>ATOM
      1 C1         -1.7830    1.0170   -0.4560 C.2       1 SUV1        0.0000
      2 N1         -0.4800    1.3870   -0.7040 N.pl3     1 SUV1        0.0000
      3 O1         -2.7510    1.8470   -0.0300 O.3       1 SUV1        0.0000
      4 CL1        -7.0830   -2.0540    0.2040 Cl        1 SUV1        0.0000
      5 N2         -2.2600   -0.1920   -0.6050 N.2       1 SUV1        0.0000
      6 O2          3.8870    1.3380    0.2830 O.2       1 SUV1        0.0000
      7 C3         -3.5790   -0.1850   -0.2690 C.2       1 SUV1        0.0000
      8 N3          2.2140    1.3620   -1.1770 N.pl3     1 SUV1        0.0000
      9 C4         -4.5700   -1.1660   -0.2360 C.2       1 SUV1        0.0000
     10 N4          2.8530   -0.8550    1.9360 N.pl3     1 SUV1        0.0000
     11 C5         -5.8480   -0.8350    0.1630 C.2       1 SUV1        0.0000
     12 N5          2.6580    0.4090    2.0660 N.2       1 SUV1        0.0000
     13 C6         -6.1520    0.4670    0.5310 C.2       1 SUV1        0.0000
     14 N6          2.8300   -1.4410    3.0810 N.2       1 SUV1        0.0000
     15 C7         -5.1800    1.4470    0.5020 C.2       1 SUV1        0.0000
     16 C8         -3.8940    1.1330    0.0970 C.2       1 SUV1        0.0000
     17 C11        -0.1000    1.0650   -2.0630 C.3       1 SUV1        0.0000
     18 C12         1.3600    0.5750   -2.0910 C.3       1 SUV1        0.0000
     19 C14         2.1170    2.8000   -1.0540 C.3       1 SUV1        0.0000
     20 C15         1.0740    3.1560    0.0370 C.3       1 SUV1        0.0000
     21 C16        -0.2800    2.8110   -0.4370 C.3       1 SUV1        0.0000
     22 C17         3.1250    0.7110   -0.4260 C.2       1 SUV1        0.0000
     23 C19         3.1960   -0.7630   -0.4650 C.2       1 SUV1        0.0000
     24 C20         3.0580   -1.5070    0.7160 C.2       1 SUV1        0.0000
     25 C21         3.1270   -2.8910    0.6680 C.2       1 SUV1        0.0000
     26 C22         3.3300   -3.5330   -0.5380 C.2       1 SUV1        0.0000
     27 C23         3.4670   -2.8020   -1.7060 C.2       1 SUV1        0.0000
     28 C24         3.3950   -1.4240   -1.6770 C.2       1 SUV1        0.0000
     29 C27         2.4970    0.6830    3.3400 C.2       1 SUV1        0.0000
     30 C28         2.6160   -0.5380    4.0120 C.2       1 SUV1        0.0000
     31 C29         3.6880   -3.5140   -3.0160 C.3       1 SUV1        0.0000
     32 C30         3.4810    3.3720   -0.6620 C.3       1 SUV1        0.0000
     33 H1         -4.3380   -2.1810   -0.5230 H         1 SUV1        0.0000
     34 H2         -7.1560    0.7170    0.8410 H         1 SUV1        0.0000
     35 H3         -5.4210    2.4570    0.8010 H         1 SUV1        0.0000
     36 H4         -0.7530    0.2800   -2.4460 H         1 SUV1        0.0000
     37 H5         -0.1950    1.9530   -2.6870 H         1 SUV1        0.0000
     38 H6          1.7470    0.6650   -3.1060 H         1 SUV1        0.0000
     39 H7          1.3900   -0.4730   -1.7920 H         1 SUV1        0.0000
     40 H8          1.8050    3.2260   -2.0070 H         1 SUV1        0.0000
     41 H9          1.2950    2.5960    0.9460 H         1 SUV1        0.0000
     42 H10         1.1230    4.2240    0.2490 H         1 SUV1        0.0000
     43 H11        -0.4780    3.3660   -1.3530 H         1 SUV1        0.0000
     44 H12        -1.0000    3.1260    0.3180 H         1 SUV1        0.0000
     45 H13         3.0210   -3.4680    1.5750 H         1 SUV1        0.0000
     46 H14         3.3840   -4.6110   -0.5710 H         1 SUV1        0.0000
     47 H15         3.4970   -0.8590   -2.5920 H         1 SUV1        0.0000
     48 H16         2.3150    1.6520    3.7800 H         1 SUV1        0.0000
     49 H17         2.5410   -0.7050    5.0760 H         1 SUV1        0.0000
     50 H18         2.7250   -3.7310   -3.4780 H         1 SUV1        0.0000
     51 H19         4.2750   -2.8800   -3.6790 H         1 SUV1        0.0000
     52 H20         4.2230   -4.4460   -2.8360 H         1 SUV1        0.0000
     53 H21         4.2610    2.8780   -1.2410 H         1 SUV1        0.0000
     54 H22         3.4990    4.4420   -0.8670 H         1 SUV1        0.0000
     55 H23         3.6540    3.2030    0.4010 H         1 SUV1        0.0000
@<TRIPOS>BOND
     1   12   29 2
     2   29   30 1
     3   10   12 1
     4   14   30 2
     5   10   14 1
     6   10   24 1
     7   24   25 2
     8   25   26 1
     9   23   24 1
    10   26   27 2
    11    8   18 1
    12   17   18 1
    13   22   23 1
    14   23   28 2
    15   27   28 1
    16   27   31 1
    17   19   32 1
    18    8   22 1
    19    8   19 1
    20    6   22 2
    21    2   17 1
    22   15   16 2
    23   13   15 1
    24    3   16 1
    25    1    3 1
    26   19   20 1
    27    7   16 1
    28   11   13 2
    29    1    2 1
    30    2   21 1
    31    1    5 2
    32   20   21 1
    33    5    7 1
    34    7    9 2
    35    9   11 1
    36    4   11 1
    37    9   33 1
    38   13   34 1
    39   15   35 1
    40   17   36 1
    41   17   37 1
    42   18   38 1
    43   18   39 1
    44   19   40 1
    45   20   41 1
    46   20   42 1
    47   21   43 1
    48   21   44 1
    49   25   45 1
    50   26   46 1
    51   28   47 1
    52   29   48 1
    53   30   49 1
    54   31   50 1
    55   31   51 1
    56   31   52 1
    57   32   53 1
    58   32   54 1
    59   32   55 1
@<TRIPOS>SUBSTRUCTURE
     1 SUV1        1 RESIDUE           4 A     SUV     0 ROOT
