# created with PyMOL 2.3.5
@<TRIPOS>MOLECULE
J9P
61 61 1 0 0
SMALL
USER_CHARGES


@<TRIPOS>ATOM
      1 C01         9.3300   -2.8330    0.0010 C.3       1 J9P1        0.0000
      2 C02         8.0080   -2.7530   -0.7650 C.3       1 J9P1        0.0000
      3 C03         6.9940   -1.9490    0.0500 C.3       1 J9P1        0.0000
      4 C04         5.6720   -1.8690   -0.7160 C.3       1 J9P1        0.0000
      5 C05         4.6580   -1.0640    0.0990 C.3       1 J9P1        0.0000
      6 C06         5.1970    0.3480    0.3340 C.3       1 J9P1        0.0000
      7 C07         3.3360   -0.9840   -0.6670 C.3       1 J9P1        0.0000
      8 C08         2.3770   -0.0900    0.0770 C.2       1 J9P1        0.0000
      9 C09         1.8290    0.9320   -0.5320 C.2       1 J9P1        0.0000
     10 C10         0.8700    1.8260    0.2120 C.3       1 J9P1        0.0000
     11 C11         1.3250    3.3050    0.1240 C.3       1 J9P1        0.0000
     12 C12        -0.0030    4.0730    0.3410 C.3       1 J9P1        0.0000
     13 C13        -1.0440    3.2420   -0.3880 C.2       1 J9P1        0.0000
     14 C15        -0.5130    1.8260   -0.4720 C.3       1 J9P1        0.0000
     15 C16        -1.4570    0.8690    0.2580 C.3       1 J9P1        0.0000
     16 C17        -2.7830    0.7830   -0.5010 C.3       1 J9P1        0.0000
     17 C18        -3.7270   -0.1740    0.2290 C.3       1 J9P1        0.0000
     18 C19        -5.0530   -0.2600   -0.5290 C.3       1 J9P1        0.0000
     19 C20        -5.9970   -1.2170    0.2010 C.3       1 J9P1        0.0000
     20 C21        -7.3230   -1.3030   -0.5580 C.3       1 J9P1        0.0000
     21 C22        -8.2530   -2.2450    0.1610 C.2       1 J9P1        0.0000
     22 O14        -2.1000    3.6370   -0.8200 O.2       1 J9P1        0.0000
     23 O23        -9.4820   -2.4770   -0.3270 O.3       1 J9P1        0.0000
     24 O24        -7.8930   -2.7920    1.1760 O.co2     1 J9P1        0.0000
     25 O25         2.2630    3.6110    1.1580 O.3       1 J9P1        0.0000
     26 O26         4.4410   -1.7060    1.3570 O.3       1 J9P1        0.0000
     27 H022        7.6236   -3.7592   -0.9320 H         1 J9P1        0.0000
     28 H023        8.1731   -2.2632   -1.7246 H         1 J9P1        0.0000
     29 H032        6.8287   -2.4393    1.0094 H         1 J9P1        0.0000
     30 H033        7.3784   -0.9429    0.2175 H         1 J9P1        0.0000
     31 H042        5.2873   -2.8752   -0.8825 H         1 J9P1        0.0000
     32 H043        5.8372   -1.3797   -1.6759 H         1 J9P1        0.0000
     33 H072        2.9071   -1.9821   -0.7563 H         1 J9P1        0.0000
     34 H073        3.5164   -0.5757   -1.6614 H         1 J9P1        0.0000
     35 H08         2.1419   -0.2921    1.1116 H         1 J9P1        0.0000
     36 H09         2.0641    1.1341   -1.5666 H         1 J9P1        0.0000
     37 H10         0.7830    1.5130    1.2525 H         1 J9P1        0.0000
     38 H11         1.7443    3.5244   -0.8579 H         1 J9P1        0.0000
     39 H122       -0.2394    4.1419    1.4028 H         1 J9P1        0.0000
     40 H123        0.0604    5.0689   -0.0975 H         1 J9P1        0.0000
     41 H15        -0.4127    1.5269   -1.5153 H         1 J9P1        0.0000
     42 H162       -1.0029   -0.1206    0.3091 H         1 J9P1        0.0000
     43 H163       -1.6393    1.2378    1.2674 H         1 J9P1        0.0000
     44 H172       -2.6006    0.4138   -1.5102 H         1 J9P1        0.0000
     45 H173       -3.2371    1.7726   -0.5525 H         1 J9P1        0.0000
     46 H182       -3.2729   -1.1636    0.2798 H         1 J9P1        0.0000
     47 H183       -3.9088    0.1946    1.2385 H         1 J9P1        0.0000
     48 H192       -4.8710   -0.6290   -1.5384 H         1 J9P1        0.0000
     49 H193       -5.5071    0.7296   -0.5803 H         1 J9P1        0.0000
     50 H202       -6.1794   -0.8478    1.2102 H         1 J9P1        0.0000
     51 H203       -5.5429   -2.2066    0.2525 H         1 J9P1        0.0000
     52 H212       -7.1406   -1.6725   -1.5671 H         1 J9P1        0.0000
     53 H213       -7.7769   -0.3134   -0.6099 H         1 J9P1        0.0000
     54 H011       10.0529   -3.4060   -0.5797 H         1 J9P1        0.0000
     55 H012        9.7143   -1.8268    0.1680 H         1 J9P1        0.0000
     56 H013        9.1648   -3.3228    0.9607 H         1 J9P1        0.0000
     57 H061        4.3644    1.0473    0.4100 H         1 J9P1        0.0000
     58 H062        5.8377    0.6355   -0.4996 H         1 J9P1        0.0000
     59 H063        5.7735    0.3676    1.2589 H         1 J9P1        0.0000
     60 H25         3.0774    3.1262    1.0056 H         1 J9P1        0.0000
     61 H26         4.1027   -2.5923    1.2103 H         1 J9P1        0.0000
@<TRIPOS>BOND
     1    5   26 1
     2    5    6 1
     3    4    5 1
     4    5    7 1
     5    3    4 1
     6   11   25 1
     7    7    8 1
     8    2    3 1
     9    1    2 1
    10    8    9 2
    11   10   11 1
    12   11   12 1
    13    9   10 1
    14   10   14 1
    15   12   13 1
    16   13   14 1
    17   14   15 1
    18   13   22 2
    19   15   16 1
    20   16   17 1
    21   17   18 1
    22   18   19 1
    23   19   20 1
    24   21   24 2
    25   20   21 1
    26   21   23 1
    27   27    2 1
    28   28    2 1
    29   29    3 1
    30   30    3 1
    31   31    4 1
    32   32    4 1
    33   33    7 1
    34   34    7 1
    35   35    8 1
    36   36    9 1
    37   37   10 1
    38   38   11 1
    39   39   12 1
    40   40   12 1
    41   41   14 1
    42   42   15 1
    43   43   15 1
    44   44   16 1
    45   45   16 1
    46   46   17 1
    47   47   17 1
    48   48   18 1
    49   49   18 1
    50   50   19 1
    51   51   19 1
    52   52   20 1
    53   53   20 1
    54   54    1 1
    55   55    1 1
    56   56    1 1
    57   57    6 1
    58   58    6 1
    59   59    6 1
    60   60   25 1
    61   61   26 1
@<TRIPOS>SUBSTRUCTURE
     1 J9P1        1 RESIDUE           4 A     J9P     0 ROOT
