# created with PyMOL 2.3.5
@<TRIPOS>MOLECULE
BMA
24 24 1                 
SMALL
USER_CHARGES
@<TRIPOS>ATOM
1	  C1	-1.442	-0.578	-0.504	C.3	1	BMA0	0.000	
2	  C2	-0.493	-0.194	-1.642	C.3	1	BMA0	0.000	
3	  C3	0.945	-0.515	-1.223	C.3	1	BMA0	0.000	
4	  C4	1.227	0.168	0.119	C.3	1	BMA0	0.000	
5	  C5	0.149	-0.244	1.124	C.3	1	BMA0	0.000	
6	  C6	0.442	0.405	2.478	C.3	1	BMA0	0.000	
7	  O1	-2.789	-0.311	-0.899	O.3	1	BMA0	0.000	
8	  O2	-0.614	1.202	-1.915	O.3	1	BMA0	0.000	
9	  O3	1.853	-0.027	-2.213	O.3	1	BMA0	0.000	
10	  O4	2.510	-0.235	0.601	O.3	1	BMA0	0.000	
11	  O5	-1.130	0.181	0.661	O.3	1	BMA0	0.000	
12	  O6	-0.561	0.018	3.419	O.3	1	BMA0	0.000	
13	  H1	-1.333	-1.640	-0.284	 H	1	BMA0	0.000	
14	  H2	-0.748	-0.763	-2.537	 H	1	BMA0	0.000	
15	  H3	1.063	-1.593	-1.118	 H	1	BMA0	0.000	
16	  H4	1.211	1.250	-0.011	 H	1	BMA0	0.000	
17	  H5	0.152	-1.328	1.234	 H	1	BMA0	0.000	
18	 H61	0.439	1.489	2.369	 H	1	BMA0	0.000	
19	 H62	1.418	0.078	2.835	 H	1	BMA0	0.000	
20	 HO1	-3.354	-0.570	-0.159	 H	1	BMA0	0.000	
21	 HO2	-1.534	1.360	-2.167	 H	1	BMA0	0.000	
22	 HO3	1.630	-0.474	-3.041	 H	1	BMA0	0.000	
23	 HO4	3.157	0.035	-0.064	 H	1	BMA0	0.000	
24	 HO6	-0.340	0.447	4.256	 H	1	BMA0	0.000	
@<TRIPOS>BOND
1 1 2 1
2 1 7 1
3 1 11 1
4 1 13 1
5 2 3 1
6 2 8 1
7 2 14 1
8 3 4 1
9 3 9 1
10 3 15 1
11 4 5 1
12 4 10 1
13 4 16 1
14 5 6 1
15 5 11 1
16 5 17 1
17 6 12 1
18 6 18 1
19 6 19 1
20 7 20 1
21 8 21 1
22 9 22 1
23 10 23 1
24 12 24 1
@<TRIPOS>SUBSTRUCTURE
1	BMA0	1	GROUP	1 ****	BMA
