# created with PyMOL 2.3.5
@<TRIPOS>MOLECULE
D8B
30 31 1 0 0
SMALL
USER_CHARGES


@<TRIPOS>ATOM
      1 C1         -2.9040   -1.6360    0.0040 C.2       1 D8B1        0.0000
      2 N1         -3.3130    0.6960   -0.0010 N.2       1 D8B1        0.0000
      3 C11         3.3370    2.0120   -0.0030 C.2       1 D8B1        0.0000
      4 C12         4.2410    0.9650   -0.0020 C.2       1 D8B1        0.0000
      5 C13         3.7910   -0.3480    0.0000 C.2       1 D8B1        0.0000
      6 C14         2.4320   -0.6150    0.0010 C.2       1 D8B1        0.0000
      7 C15         6.0700   -1.0240    0.0000 C.3       1 D8B1        0.0000
      8 C2         -2.4490   -0.3150    0.0010 C.2       1 D8B1        0.0000
      9 C3         -4.6140    0.4910    0.0010 C.2       1 D8B1        0.0000
     10 C4         -5.1320   -0.7920   -0.0020 C.2       1 D8B1        0.0000
     11 C5         -4.2660   -1.8770   -0.0010 C.2       1 D8B1        0.0000
     12 C6         -5.5520    1.6700   -0.0010 C.3       1 D8B1        0.0000
     13 C7         -1.0420   -0.0470    0.0000 C.1       1 D8B1        0.0000
     14 C8          0.1110    0.1720   -0.0000 C.1       1 D8B1        0.0000
     15 C9          1.5180    0.4400   -0.0010 C.2       1 D8B1        0.0000
     16 C10         1.9810    1.7590    0.0030 C.2       1 D8B1        0.0000
     17 O1          4.6840   -1.3720    0.0010 O.3       1 D8B1        0.0000
     18 H1         -2.2020   -2.4570    0.0050 H         1 D8B1        0.0000
     19 H2          3.6940    3.0320   -0.0050 H         1 D8B1        0.0000
     20 H3          5.3010    1.1700   -0.0020 H         1 D8B1        0.0000
     21 H4          2.0810   -1.6370    0.0020 H         1 D8B1        0.0000
     22 H5          6.2970   -0.4380   -0.8910 H         1 D8B1        0.0000
     23 H6          6.2980   -0.4360    0.8890 H         1 D8B1        0.0000
     24 H7          6.6730   -1.9320    0.0010 H         1 D8B1        0.0000
     25 H8         -6.2000   -0.9480   -0.0010 H         1 D8B1        0.0000
     26 H9         -4.6470   -2.8880   -0.0040 H         1 D8B1        0.0000
     27 H10        -5.7810    1.9540    1.0260 H         1 D8B1        0.0000
     28 H11        -5.0800    2.5090   -0.5130 H         1 D8B1        0.0000
     29 H12        -6.4730    1.4010   -0.5180 H         1 D8B1        0.0000
     30 H13         1.2780    2.5790    0.0060 H         1 D8B1        0.0000
@<TRIPOS>BOND
     1    9   12 1
     2    9   10 2
     3    2    9 1
     4   10   11 1
     5    2    8 2
     6    1   11 2
     7    1    8 1
     8    8   13 1
     9   13   14 3
    10   14   15 1
    11    7   17 1
    12    6   15 2
    13   15   16 1
    14    5    6 1
    15    3   16 2
    16    5   17 1
    17    4    5 2
    18    3    4 1
    19    1   18 1
    20    3   19 1
    21    4   20 1
    22    6   21 1
    23    7   22 1
    24    7   23 1
    25    7   24 1
    26   10   25 1
    27   11   26 1
    28   12   27 1
    29   12   28 1
    30   12   29 1
    31   16   30 1
@<TRIPOS>SUBSTRUCTURE
     1 D8B1        1 RESIDUE           4 A     D8B     0 ROOT
