# created with PyMOL 2.3.5
@<TRIPOS>MOLECULE
5MV
67 71 1 0 0
SMALL
USER_CHARGES


@<TRIPOS>ATOM
      1 N1          0.0960   -1.0990   -1.1200 N.2       1 5MV1        0.0000
      2 N3         -5.4760    2.4680    0.2330 N.pl3     1 5MV1        0.0000
      3 C4         -0.8020   -5.9390    0.3520 C.2       1 5MV1        0.0000
      4 C5         -1.6020   -5.0010   -0.2780 C.2       1 5MV1        0.0000
      5 C6         -1.1020   -3.7450   -0.5660 C.2       1 5MV1        0.0000
      6 C7          0.7500   -2.0760   -0.5280 C.2       1 5MV1        0.0000
      7 C8          2.0490   -1.6250   -0.2360 C.2       1 5MV1        0.0000
      8 C10         4.6480    2.3440   -1.4590 C.2       1 5MV1        0.0000
      9 C13         4.2480    0.3340    0.4570 C.2       1 5MV1        0.0000
     10 C15         5.5820    2.1750   -0.4200 C.2       1 5MV1        0.0000
     11 C17         7.6100    2.8090    0.7020 C.2       1 5MV1        0.0000
     12 C20         0.6150    1.3010   -1.8220 C.3       1 5MV1        0.0000
     13 C21        -3.0760    2.7090   -0.1850 C.2       1 5MV1        0.0000
     14 C22        -1.9100    3.4610   -0.0340 C.2       1 5MV1        0.0000
     15 C24        -0.6860    1.7970   -1.2460 C.2       1 5MV1        0.0000
     16 C26        -3.0310    1.4930   -0.8690 C.2       1 5MV1        0.0000
     17 C28        -4.3520    3.1960    0.3810 C.2       1 5MV1        0.0000
     18 C1          0.2090   -3.4240   -0.2210 C.2       1 5MV1        0.0000
     19 C2          1.0100   -4.3710    0.4120 C.2       1 5MV1        0.0000
     20 C3          0.5000   -5.6220    0.7010 C.2       1 5MV1        0.0000
     21 CL1         1.4970   -6.8040    1.4900 Cl        1 5MV1        0.0000
     22 CL2        -3.2350   -5.4030   -0.7070 Cl        1 5MV1        0.0000
     23 C9          2.1510   -0.3380   -0.6760 C.2       1 5MV1        0.0000
     24 C11         3.5570    1.5390   -1.5280 C.2       1 5MV1        0.0000
     25 C12         3.3450    0.5290   -0.5740 C.2       1 5MV1        0.0000
     26 C14         5.3800    1.1590    0.5490 C.2       1 5MV1        0.0000
     27 C16         6.7150    2.9990   -0.3260 C.2       1 5MV1        0.0000
     28 C18         7.4060    1.8020    1.6500 C.2       1 5MV1        0.0000
     29 C19         6.3180    0.9900    1.5830 C.2       1 5MV1        0.0000
     30 C25        -1.8370    1.0440   -1.3950 C.2       1 5MV1        0.0000
     31 N2          0.9510    0.0050   -1.2260 N.pl3     1 5MV1        0.0000
     32 O1          8.7080    3.6050    0.7930 O.3       1 5MV1        0.0000
     33 C27         9.5990    3.3590    1.8830 C.3       1 5MV1        0.0000
     34 O2         -4.3870    4.2540    0.9790 O.2       1 5MV1        0.0000
     35 C29        -6.7410    2.9510    0.7930 C.3       1 5MV1        0.0000
     36 C30        -7.8520    1.9440    0.4870 C.3       1 5MV1        0.0000
     37 C31        -9.1520    2.4410    1.0640 C.2       1 5MV1        0.0000
     38 O3        -10.2720    1.7160    0.9160 O.3       1 5MV1        0.0000
     39 O4         -9.1870    3.4920    1.6590 O.co2     1 5MV1        0.0000
     40 C32         0.4740    1.1430   -3.3380 C.3       1 5MV1        0.0000
     41 C23        -0.7220    3.0010   -0.5640 C.2       1 5MV1        0.0000
     42 H3         -5.4467    1.5892   -0.2640 H         1 5MV1        0.0000
     43 H4         -1.1945   -6.9208    0.5719 H         1 5MV1        0.0000
     44 H6         -1.7265   -3.0138   -1.0576 H         1 5MV1        0.0000
     45 H8          2.8269   -2.1954    0.2497 H         1 5MV1        0.0000
     46 H10         4.7991    3.1138   -2.2012 H         1 5MV1        0.0000
     47 H13         4.0829   -0.4467    1.1848 H         1 5MV1        0.0000
     48 H20         1.4063    2.0180   -1.6032 H         1 5MV1        0.0000
     49 H22        -1.9375    4.4012    0.4967 H         1 5MV1        0.0000
     50 H26        -3.9291    0.9047   -0.9863 H         1 5MV1        0.0000
     51 H2          2.0285   -4.1279    0.6766 H         1 5MV1        0.0000
     52 H11         2.8428    1.6765   -2.3263 H         1 5MV1        0.0000
     53 H16         6.8831    3.7771   -1.0559 H         1 5MV1        0.0000
     54 H18         8.1228    1.6674    2.4466 H         1 5MV1        0.0000
     55 H19         6.1741    0.2163    2.3227 H         1 5MV1        0.0000
     56 H25        -1.8009    0.1031   -1.9239 H         1 5MV1        0.0000
     57 H292       -6.6406    3.0642    1.8725 H         1 5MV1        0.0000
     58 H293       -6.9910    3.9142    0.3483 H         1 5MV1        0.0000
     59 H302       -7.9531    1.8313   -0.5924 H         1 5MV1        0.0000
     60 H303       -7.6019    0.9806    0.9312 H         1 5MV1        0.0000
     61 H23         0.1813    3.5813   -0.4465 H         1 5MV1        0.0000
     62 H321        0.2241    2.1063   -3.7825 H         1 5MV1        0.0000
     63 H322        1.4151    0.7840   -3.7547 H         1 5MV1        0.0000
     64 H323       -0.3172    0.4258   -3.5565 H         1 5MV1        0.0000
     65 H271       10.4293    4.0639    1.8405 H         1 5MV1        0.0000
     66 H272        9.0642    3.4843    2.8245 H         1 5MV1        0.0000
     67 H273        9.9828    2.3410    1.8159 H         1 5MV1        0.0000
@<TRIPOS>BOND
     1   20   21 1
     2   19   20 2
     3    3   20 1
     4   18   19 1
     5    3    4 2
     6   12   40 1
     7    6   18 1
     8    5   18 2
     9    1    6 2
    10    1   31 1
    11    4    5 1
    12    4   22 1
    13    6    7 1
    14   12   31 1
    15   12   15 1
    16   23   31 1
    17    7   23 2
    18   23   25 1
    19   15   41 2
    20   15   30 1
    21   14   41 1
    22   16   30 2
    23    9   25 2
    24    9   26 1
    25   24   25 1
    26   26   29 2
    27   28   29 1
    28   13   14 2
    29   13   16 1
    30   10   26 1
    31   13   17 1
    32    8   24 2
    33   11   28 2
    34    8   10 1
    35   10   27 2
    36    2   17 1
    37   17   34 2
    38    2   35 1
    39   11   27 1
    40   11   32 1
    41   35   36 1
    42   32   33 1
    43   36   37 1
    44   37   39 2
    45   37   38 1
    46   42    2 1
    47   43    3 1
    48   44    5 1
    49   45    7 1
    50   46    8 1
    51   47    9 1
    52   48   12 1
    53   49   14 1
    54   50   16 1
    55   51   19 1
    56   52   24 1
    57   53   27 1
    58   54   28 1
    59   55   29 1
    60   56   30 1
    61   57   35 1
    62   58   35 1
    63   59   36 1
    64   60   36 1
    65   61   41 1
    66   62   40 1
    67   63   40 1
    68   64   40 1
    69   65   33 1
    70   66   33 1
    71   67   33 1
@<TRIPOS>SUBSTRUCTURE
     1 5MV1        1 RESIDUE           4 A     5MV     0 ROOT
