@<TRIPOS>MOLECULE
    OIC
   92    94     0     0     0
SMALL
USER_CHARGES


@<TRIPOS>ATOM
      1 X         182.5120  -13.4450   63.5210 N.4        1 OIC      0.000000
      2 X         182.8420  -13.8210   62.1420 C.3        1 OIC      0.000000
      3 X         182.8440  -12.5790   61.2460 C.2        1 OIC      0.000000
      4 X         181.7870  -12.0130   60.9550 O.2        1 OIC      0.000000
      5 X         181.8790  -14.8990   61.6130 C.3        1 OIC      0.000000
      6 X         183.8487  -14.2390   62.1393 H          1 OIC      0.000000
      7 X         183.1582  -12.7381   63.8415 H          1 OIC      0.000000
      8 X         182.5798  -14.2578   64.1167 H          1 OIC      0.000000
      9 X         181.5706  -13.0806   63.5545 H          1 OIC      0.000000
     10 X         182.1488  -15.1570   60.5889 H          1 OIC      0.000000
     11 X         181.9476  -15.7871   62.2413 H          1 OIC      0.000000
     12 X         180.8585  -14.5167   61.6345 H          1 OIC      0.000000
     13 X         184.0470  -12.1300   60.8630 N.am       2 OIC      0.000000
     14 X         184.2480  -10.9410   60.0330 C.3        2 OIC      0.000000
     15 X         184.1190  -11.2390   58.5360 C.2        2 OIC      0.000000
     16 X         184.5460  -12.3120   58.1050 O.2        2 OIC      0.000000
     17 X         185.6240  -10.3170   60.3080 C.3        2 OIC      0.000000
     18 X         185.7040   -9.5490   61.6190 C.3        2 OIC      0.000000
     19 X         187.1040   -9.0020   61.8880 C.3        2 OIC      0.000000
     20 X         188.0440  -10.0140   62.4980 C.3        2 OIC      0.000000
     21 X         187.7010  -10.3160   63.9130 N.4        2 OIC      0.000000
     22 X         184.8635  -12.6422   61.1648 H          2 OIC      0.000000
     23 X         183.4852  -10.2094   60.2994 H          2 OIC      0.000000
     24 X         185.8580   -9.6308   59.4940 H          2 OIC      0.000000
     25 X         186.3711  -11.1106   60.3217 H          2 OIC      0.000000
     26 X         185.0039   -8.7145   61.5791 H          2 OIC      0.000000
     27 X         185.4193  -10.2119   62.4361 H          2 OIC      0.000000
     28 X         187.0178   -8.1570   62.5711 H          2 OIC      0.000000
     29 X         187.5295   -8.6506   60.9480 H          2 OIC      0.000000
     30 X         187.9907  -10.9362   61.9193 H          2 OIC      0.000000
     31 X         189.0614   -9.6254   62.4542 H          2 OIC      0.000000
     32 X         188.3525  -10.9947   64.2804 H          2 OIC      0.000000
     33 X         187.7536   -9.4687   64.4601 H          2 OIC      0.000000
     34 X         186.7637  -10.6894   63.9599 H          2 OIC      0.000000
     35 N         183.5640  -10.2900   57.7350 N.am       3 OIC      0.000000
     36 CA        183.4940  -10.4920   56.2750 C.3        3 OIC      0.000000
     37 C         184.8890  -10.2480   55.7000 C.2        3 OIC      0.000000
     38 O         185.5760   -9.3250   56.1450 O.2        3 OIC      0.000000
     39 CB        182.4260   -9.5230   55.7440 C.3        3 OIC      0.000000
     40 CG        181.6030   -9.2020   56.9940 C.3        3 OIC      0.000000
     41 CD        182.7210   -9.1130   58.0520 C.3        3 OIC      0.000000
     42 C4        180.7030   -7.9590   56.9070 C.3        3 OIC      0.000000
     43 C5        181.4830   -6.6450   56.9850 C.3        3 OIC      0.000000
     44 C6        182.3750   -6.6060   58.2120 C.3        3 OIC      0.000000
     45 C7        183.3930   -7.7430   58.1800 C.3        3 OIC      0.000000
     46 HA        183.1896  -11.5174   56.0651 H          3 OIC      0.000000
     47 HB2       182.8831   -8.6225   55.3338 H          3 OIC      0.000000
     48 HB3       181.8055  -10.0124   54.9933 H          3 OIC      0.000000
     49 HG        180.9778  -10.0643   57.2254 H          3 OIC      0.000000
     50 HD        182.2526   -9.3186   59.0145 H          3 OIC      0.000000
     51 H42       179.9906   -7.9886   57.7315 H          3 OIC      0.000000
     52 H43       180.1538   -7.9871   55.9659 H          3 OIC      0.000000
     53 H52       182.1016   -6.5458   56.0930 H          3 OIC      0.000000
     54 H53       180.7798   -5.8133   57.0271 H          3 OIC      0.000000
     55 H62       182.9043   -5.6535   58.2384 H          3 OIC      0.000000
     56 H63       181.7595   -6.6999   59.1067 H          3 OIC      0.000000
     57 H72       183.9736   -7.7210   59.1022 H          3 OIC      0.000000
     58 H73       184.0640   -7.5957   57.3338 H          3 OIC      0.000000
     59 Y0        185.3130  -11.0940   54.7390 N.am       4 OIC      0.000000
     60 X         186.6330  -11.0740   54.0900 C.3        4 OIC      0.000000
     61 X         187.1420   -9.6510   53.7690 C.2        4 OIC      0.000000
     62 X         186.3680   -8.8360   53.2590 O.2        4 OIC      0.000000
     63 X         186.6280  -11.9800   52.8750 C.3        4 OIC      0.000000
     64 X         187.1700  -13.3200   53.3900 C.3        4 OIC      0.000000
     65 X         186.4510  -14.5220   52.7880 C.3        4 OIC      0.000000
     66 X         187.2410  -15.7690   53.1940 C.3        4 OIC      0.000000
     67 X         184.6645  -11.8070   54.4371 H          4 OIC      0.000000
     68 X         187.3379  -11.5062   54.8002 H          4 OIC      0.000000
     69 X         187.2731  -11.5789   52.0933 H          4 OIC      0.000000
     70 X         185.6120  -12.1028   52.4999 H          4 OIC      0.000000
     71 X         188.2285  -13.3865   53.1387 H          4 OIC      0.000000
     72 X         187.0621  -13.3510   54.4742 H          4 OIC      0.000000
     73 X         185.4338  -14.5815   53.1752 H          4 OIC      0.000000
     74 X         186.4293  -14.4347   51.7017 H          4 OIC      0.000000
     75 X         186.7586  -16.6554   52.7821 H          4 OIC      0.000000
     76 X         187.2692  -15.8430   54.2811 H          4 OIC      0.000000
     77 X         188.2579  -15.6964   52.8083 H          4 OIC      0.000000
     78 X         188.4170   -9.3240   54.1100 N.am       5 OIC      0.000000
     79 X         188.9110   -7.9520   53.8900 C.3        5 OIC      0.000000
     80 X         189.1550   -7.5710   52.4340 C.2        5 OIC      0.000000
     81 X         189.4950   -6.4200   52.1630 O.2        5 OIC      0.000000
     82 X         190.1970   -7.9020   54.7190 C.3        5 OIC      0.000000
     83 X         190.6730   -9.3030   54.7500 C.3        5 OIC      0.000000
     84 X         189.4450  -10.1670   54.7580 C.3        5 OIC      0.000000
     85 X         188.1939   -7.2512   54.3176 H          5 OIC      0.000000
     86 X         189.0308   -8.3029   51.6496 H          5 OIC      0.000000
     87 X         189.9914   -7.5427   55.7274 H          5 OIC      0.000000
     88 X         190.9347   -7.2631   54.2335 H          5 OIC      0.000000
     89 X         191.2776   -9.5153   53.8683 H          5 OIC      0.000000
     90 X         191.2574   -9.4779   55.6533 H          5 OIC      0.000000
     91 X         189.1542  -10.4189   55.7778 H          5 OIC      0.000000
     92 X         189.6146  -11.0733   54.1766 H          5 OIC      0.000000
@<TRIPOS>BOND
     1    1    2 1
     2    1    7 1
     3    1    8 1
     4    1    9 1
     5    2    3 1
     6    2    5 1
     7    2    6 1
     8    3    4 2
     9    3   13 am
    10    5   10 1
    11    5   11 1
    12    5   12 1
    13   13   14 1
    14   13   22 1
    15   14   15 1
    16   14   17 1
    17   14   23 1
    18   15   16 2
    19   15   35 am
    20   17   18 1
    21   17   24 1
    22   17   25 1
    23   18   19 1
    24   18   26 1
    25   18   27 1
    26   19   20 1
    27   19   28 1
    28   19   29 1
    29   20   21 1
    30   20   30 1
    31   20   31 1
    32   21   32 1
    33   21   33 1
    34   21   34 1
    35   35   36 1
    36   35   41 1
    37   36   37 1
    38   36   39 1
    39   36   46 1
    40   37   38 2
    41   37   59 am
    42   39   40 1
    43   39   47 1
    44   39   48 1
    45   40   41 1
    46   40   42 1
    47   40   49 1
    48   41   45 1
    49   41   50 1
    50   42   43 1
    51   42   51 1
    52   42   52 1
    53   43   44 1
    54   43   53 1
    55   43   54 1
    56   44   45 1
    57   44   55 1
    58   44   56 1
    59   45   57 1
    60   45   58 1
    61   59   60 1
    62   59   67 1
    63   60   61 1
    64   60   63 1
    65   60   68 1
    66   61   62 2
    67   61   78 am
    68   63   64 1
    69   63   69 1
    70   63   70 1
    71   64   65 1
    72   64   71 1
    73   64   72 1
    74   65   66 1
    75   65   73 1
    76   65   74 1
    77   66   75 1
    78   66   76 1
    79   66   77 1
    80   78   79 1
    81   78   84 1
    82   79   80 1
    83   79   82 1
    84   79   85 1
    85   80   81 2
    86   80   86 1
    87   82   83 1
    88   82   87 1
    89   82   88 1
    90   83   84 1
    91   83   89 1
    92   83   90 1
    93   84   91 1
    94   84   92 1
