# created with PyMOL 2.3.5
@<TRIPOS>MOLECULE
DL2
42 45 1                 
SMALL
USER_CHARGES
@<TRIPOS>ATOM
1	 C10	2.409	0.864	-0.628	C.3	1	DL20	0.000	
2	 C11	1.339	1.034	0.456	C.3	1	DL20	0.000	
3	 C13	-0.867	-0.020	0.332	C.2	1	DL20	0.000	
4	 C15	-3.187	-0.826	0.184	C.2	1	DL20	0.000	
5	 C17	-4.758	0.854	-0.051	C.2	1	DL20	0.000	
6	 C19	-4.282	-1.867	0.151	C.3	1	DL20	0.000	
7	 C21	1.082	-1.480	0.574	C.3	1	DL20	0.000	
8	 C22	2.156	-1.631	-0.510	C.3	1	DL20	0.000	
9	 C23	-5.905	-0.062	-0.084	C.2	1	DL20	0.000	
10	 C25	-5.709	-1.382	0.005	C.2	1	DL20	0.000	
11	  C1	6.061	0.479	1.413	C.2	1	DL20	0.000	
12	  C2	5.070	-0.014	0.579	C.2	1	DL20	0.000	
13	  C3	5.300	-0.103	-0.792	C.2	1	DL20	0.000	
14	  C4	6.516	0.301	-1.315	C.2	1	DL20	0.000	
15	  C5	7.500	0.793	-0.477	C.2	1	DL20	0.000	
16	  C6	7.273	0.882	0.883	C.2	1	DL20	0.000	
17	  O7	4.182	-0.614	-1.389	O.3	1	DL20	0.000	
18	  C8	3.132	-0.463	-0.423	C.3	1	DL20	0.000	
19	  O9	3.810	-0.470	0.842	O.3	1	DL20	0.000	
20	 N12	0.470	-0.150	0.450	N.pl3	1	DL20	0.000	
21	 C14	-1.746	-1.243	0.327	C.3	1	DL20	0.000	
22	 N16	-3.496	0.426	0.083	N.2	1	DL20	0.000	
23	 O18	-4.963	2.050	-0.135	O.2	1	DL20	0.000	
24	 O20	-1.361	1.083	0.229	O.2	1	DL20	0.000	
25	  CL	-7.514	0.567	-0.261	Cl	1	DL20	0.000	
26	  H1	1.936	0.872	-1.610	 H	1	DL20	0.000	
27	  H2	3.125	1.683	-0.564	 H	1	DL20	0.000	
28	  H3	1.818	1.130	1.430	 H	1	DL20	0.000	
29	  H4	0.746	1.924	0.248	 H	1	DL20	0.000	
30	  H5	-4.074	-2.544	-0.678	 H	1	DL20	0.000	
31	  H6	-4.219	-2.447	1.072	 H	1	DL20	0.000	
32	  H7	0.320	-2.248	0.443	 H	1	DL20	0.000	
33	  H8	1.540	-1.583	1.558	 H	1	DL20	0.000	
34	  H9	2.695	-2.567	-0.361	 H	1	DL20	0.000	
35	 H10	1.683	-1.636	-1.492	 H	1	DL20	0.000	
36	 H11	-6.537	-2.075	-0.025	 H	1	DL20	0.000	
37	 H12	5.886	0.549	2.476	 H	1	DL20	0.000	
38	 H13	6.697	0.232	-2.378	 H	1	DL20	0.000	
39	 H14	8.449	1.108	-0.887	 H	1	DL20	0.000	
40	 H15	8.044	1.267	1.534	 H	1	DL20	0.000	
41	 H16	-1.469	-1.886	-0.509	 H	1	DL20	0.000	
42	 H17	-1.617	-1.788	1.262	 H	1	DL20	0.000	
@<TRIPOS>BOND
1 11 12 2
2 11 16 1
3 12 19 1
4 18 19 1
5 12 13 1
6 15 16 2
7 3 21 1
8 4 21 1
9 8 18 1
10 7 8 1
11 1 2 1
12 2 20 1
13 1 18 1
14 17 18 1
15 3 24 2
16 3 20 1
17 7 20 1
18 4 22 2
19 5 22 1
20 13 17 1
21 13 14 2
22 14 15 1
23 4 6 1
24 5 23 2
25 5 9 1
26 6 10 1
27 9 10 2
28 9 25 1
29 1 26 1
30 1 27 1
31 2 28 1
32 2 29 1
33 6 30 1
34 6 31 1
35 7 32 1
36 7 33 1
37 8 34 1
38 8 35 1
39 10 36 1
40 11 37 1
41 14 38 1
42 15 39 1
43 16 40 1
44 21 41 1
45 21 42 1
@<TRIPOS>SUBSTRUCTURE
1	DL20	1	GROUP	1 ****	DL2
