# created with PyMOL 2.3.5
@<TRIPOS>MOLECULE
KO5
72 75 1 0 0
SMALL
USER_CHARGES


@<TRIPOS>ATOM
      1 C4          7.8620   -0.8920   -0.1520 C.3       1 KO51        0.0000
      2 C14        -0.5100   -0.7070   -0.3260 C.2       1 KO51        0.0000
      3 C5          9.1010   -0.1930    0.4090 C.3       1 KO51        0.0000
      4 C6         10.3570   -0.9420   -0.0420 C.3       1 KO51        0.0000
      5 C11         3.3220   -2.6860   -0.2610 C.2       1 KO51        0.0000
      6 C7         11.5780   -0.2530    0.5110 C.2       1 KO51        0.0000
      7 C8          5.5220   -1.0380    0.1520 C.2       1 KO51        0.0000
      8 C9          5.6550   -2.4230    0.2140 C.2       1 KO51        0.0000
      9 C10         4.5610   -3.2390    0.0020 C.2       1 KO51        0.0000
     10 C12         3.1780   -1.3070   -0.3200 C.2       1 KO51        0.0000
     11 C13         0.8060   -1.3440   -0.1250 C.2       1 KO51        0.0000
     12 N1          6.6530   -0.2470    0.3790 N.pl3     1 KO51        0.0000
     13 N2          1.9220   -0.7460   -0.5860 N.pl3     1 KO51        0.0000
     14 C3          6.4990    1.1080   -0.1630 C.3       1 KO51        0.0000
     15 C1          5.1670    1.6820    0.3280 C.3       1 KO51        0.0000
     16 C15        -0.6010    0.5140   -1.0000 C.2       1 KO51        0.0000
     17 C16        -1.8310    1.1030   -1.1910 C.2       1 KO51        0.0000
     18 C17        -2.9810    0.4840   -0.7150 C.2       1 KO51        0.0000
     19 C18        -5.3320    0.3790   -0.3890 C.3       1 KO51        0.0000
     20 C19        -6.5960    1.1840   -0.6960 C.3       1 KO51        0.0000
     21 C2          5.0120    3.1000   -0.1590 C.2       1 KO51        0.0000
     22 C20        -7.8180    0.4460   -0.1440 C.3       1 KO51        0.0000
     23 C21        -9.0820    1.2510   -0.4510 C.3       1 KO51        0.0000
     24 C22       -10.2850    0.5240    0.0920 C.2       1 KO51        0.0000
     25 C23       -11.0160   -0.3120   -0.7290 C.2       1 KO51        0.0000
     26 C24       -12.1210   -0.9800   -0.2290 C.2       1 KO51        0.0000
     27 C25       -12.4930   -0.8090    1.0930 C.2       1 KO51        0.0000
     28 C26       -11.7600    0.0290    1.9130 C.2       1 KO51        0.0000
     29 C27       -10.6540    0.6910    1.4150 C.2       1 KO51        0.0000
     30 C28        -2.8950   -0.7300   -0.0440 C.2       1 KO51        0.0000
     31 C29        -1.6690   -1.3250    0.1510 C.2       1 KO51        0.0000
     32 C30         4.2800   -0.4800   -0.1150 C.2       1 KO51        0.0000
     33 C31        -9.8520    1.5980    2.3110 C.3       1 KO51        0.0000
     34 F1        -12.8370   -1.7980   -1.0320 F         1 KO51        0.0000
     35 O1          4.1310    3.3790   -0.9380 O.co2     1 KO51        0.0000
     36 O2          5.8530    4.0530    0.2730 O.3       1 KO51        0.0000
     37 O3         12.8010   -0.7380    0.2430 O.3       1 KO51        0.0000
     38 O4         11.4570    0.7350    1.1950 O.co2     1 KO51        0.0000
     39 O5          0.8820   -2.4090    0.4570 O.2       1 KO51        0.0000
     40 O6         -4.1920    1.0680   -0.9040 O.3       1 KO51        0.0000
     41 O7          4.1100    0.8690   -0.1950 O.3       1 KO51        0.0000
     42 H42         7.8727   -1.9415    0.1421 H         1 KO51        0.0000
     43 H43         7.8649   -0.8193   -1.2396 H         1 KO51        0.0000
     44 H52         9.0529   -0.1871    1.4979 H         1 KO51        0.0000
     45 H53         9.1376    0.8324    0.0412 H         1 KO51        0.0000
     46 H62        10.4051   -0.9479   -1.1309 H         1 KO51        0.0000
     47 H63        10.3204   -1.9674    0.3258 H         1 KO51        0.0000
     48 H11         2.4670   -3.3262   -0.4204 H         1 KO51        0.0000
     49 H9          6.6185   -2.8611    0.4289 H         1 KO51        0.0000
     50 H10         4.6741   -4.3123    0.0419 H         1 KO51        0.0000
     51 H2          1.8531    0.1065   -1.1232 H         1 KO51        0.0000
     52 H32         6.5032    1.0703   -1.2523 H         1 KO51        0.0000
     53 H33         7.3188    1.7366    0.1847 H         1 KO51        0.0000
     54 H1          5.1391    1.6634    1.4175 H         1 KO51        0.0000
     55 H15         0.2922    0.9949   -1.3705 H         1 KO51        0.0000
     56 H16        -1.9022    2.0468   -1.7111 H         1 KO51        0.0000
     57 H182       -5.2290    0.2620    0.6898 H         1 KO51        0.0000
     58 H183       -5.4044   -0.6033   -0.8558 H         1 KO51        0.0000
     59 H192       -6.6990    1.3008   -1.7748 H         1 KO51        0.0000
     60 H193       -6.5234    2.1664   -0.2294 H         1 KO51        0.0000
     61 H202       -7.8906   -0.5362   -0.6110 H         1 KO51        0.0000
     62 H203       -7.7150    0.3287    0.9348 H         1 KO51        0.0000
     63 H212       -9.0096    2.2330    0.0164 H         1 KO51        0.0000
     64 H213       -9.1848    1.3687   -1.5297 H         1 KO51        0.0000
     65 H23       -10.7258   -0.4447   -1.7608 H         1 KO51        0.0000
     66 H25       -13.3549   -1.3295    1.4837 H         1 KO51        0.0000
     67 H26       -12.0522    0.1663    2.9436 H         1 KO51        0.0000
     68 H28        -3.7909   -1.2071    0.3248 H         1 KO51        0.0000
     69 H29        -1.6030   -2.2686    0.6722 H         1 KO51        0.0000
     70 H311      -10.2897    1.6031    3.3093 H         1 KO51        0.0000
     71 H312       -8.8248    1.2376    2.3667 H         1 KO51        0.0000
     72 H313       -9.8606    2.6097    1.9054 H         1 KO51        0.0000
@<TRIPOS>BOND
     1   21   35 2
     2   21   36 1
     3   15   21 1
     4   19   20 1
     5   20   22 1
     6   19   40 1
     7   22   23 1
     8   23   24 1
     9   14   15 1
    10   15   41 1
    11   18   40 1
    12   17   18 2
    13   16   17 1
    14   12   14 1
    15   24   25 2
    16   24   29 1
    17   25   26 1
    18   32   41 1
    19   29   33 1
    20   18   30 1
    21    2   16 2
    22   28   29 2
    23    6   38 2
    24    1   12 1
    25    7   12 1
    26   26   34 1
    27   26   27 2
    28    7   32 2
    29   10   32 1
    30   30   31 2
    31   27   28 1
    32    2   31 1
    33    2   11 1
    34    1    3 1
    35   10   13 1
    36   11   13 1
    37    7    8 1
    38    6   37 1
    39    4    6 1
    40    5   10 2
    41   11   39 2
    42    3    4 1
    43    8    9 2
    44    5    9 1
    45   42    1 1
    46   43    1 1
    47   44    3 1
    48   45    3 1
    49   46    4 1
    50   47    4 1
    51   48    5 1
    52   49    8 1
    53   50    9 1
    54   51   13 1
    55   52   14 1
    56   53   14 1
    57   54   15 1
    58   55   16 1
    59   56   17 1
    60   57   19 1
    61   58   19 1
    62   59   20 1
    63   60   20 1
    64   61   22 1
    65   62   22 1
    66   63   23 1
    67   64   23 1
    68   65   25 1
    69   66   27 1
    70   67   28 1
    71   68   30 1
    72   69   31 1
    73   70   33 1
    74   71   33 1
    75   72   33 1
@<TRIPOS>SUBSTRUCTURE
     1 KO51        1 RESIDUE           4 A     KO5     0 ROOT
