# created with PyMOL 2.3.5
@<TRIPOS>MOLECULE
QGE
41 43 1 0 0
SMALL
USER_CHARGES


@<TRIPOS>ATOM
      1 C1          1.3060    1.1380    0.1120 C.2       1 QGE1        0.0000
      2 C10        -3.5850   -0.0490   -0.0270 C.2       1 QGE1        0.0000
      3 C11        -5.7570   -0.5010    0.2060 C.2       1 QGE1        0.0000
      4 C12        -5.8460    0.7670    0.6150 C.2       1 QGE1        0.0000
      5 C13         4.6470   -1.5810    0.7050 C.2       1 QGE1        0.0000
      6 C14         6.0980   -1.9860    0.7630 C.3       1 QGE1        0.0000
      7 C15         3.7280    1.5830    0.4650 C.3       1 QGE1        0.0000
      8 C16         4.3050    2.2700   -0.7740 C.3       1 QGE1        0.0000
      9 C17         5.4580    3.1860   -0.3590 C.3       1 QGE1        0.0000
     10 C18        -6.9600   -1.4060    0.1370 C.3       1 QGE1        0.0000
     11 C2          2.5920    0.6810    0.0560 C.2       1 QGE1        0.0000
     12 C3          2.8580   -0.6160   -0.3770 C.2       1 QGE1        0.0000
     13 C4          1.8270   -1.4580   -0.7590 C.2       1 QGE1        0.0000
     14 C5          0.2580    0.3000   -0.2670 C.2       1 QGE1        0.0000
     15 C6          0.5130   -1.0080   -0.7130 C.2       1 QGE1        0.0000
     16 C7         -1.7610   -1.5330   -0.7850 C.2       1 QGE1        0.0000
     17 C8         -2.1660   -0.3100   -0.3470 C.2       1 QGE1        0.0000
     18 C9         -1.1470    0.7480   -0.2010 C.2       1 QGE1        0.0000
     19 N1         -4.5540   -0.9140   -0.1230 N.2       1 QGE1        0.0000
     20 O1         -0.4960   -1.8110   -1.0980 O.3       1 QGE1        0.0000
     21 O2         -1.4470    1.9180   -0.0380 O.2       1 QGE1        0.0000
     22 O3          4.1400   -1.0600   -0.4240 O.3       1 QGE1        0.0000
     23 O4          3.9410   -1.7250    1.6750 O.co2     1 QGE1        0.0000
     24 S1         -4.2360    1.4810    0.5540 S.3       1 QGE1        0.0000
     25 H1          1.1010    2.1420    0.4520 H         1 QGE1        0.0000
     26 H2         -6.7500    1.2690    0.9290 H         1 QGE1        0.0000
     27 H3          6.3240   -2.3850    1.7520 H         1 QGE1        0.0000
     28 H4          6.2920   -2.7500    0.0100 H         1 QGE1        0.0000
     29 H5          6.7260   -1.1170    0.5690 H         1 QGE1        0.0000
     30 H6          4.5060    0.9920    0.9480 H         1 QGE1        0.0000
     31 H7          3.3610    2.3370    1.1610 H         1 QGE1        0.0000
     32 H8          4.6720    1.5160   -1.4700 H         1 QGE1        0.0000
     33 H9          3.5260    2.8620   -1.2570 H         1 QGE1        0.0000
     34 H10         5.0900    3.9400    0.3370 H         1 QGE1        0.0000
     35 H11         6.2360    2.5950    0.1230 H         1 QGE1        0.0000
     36 H12         5.8690    3.6760   -1.2420 H         1 QGE1        0.0000
     37 H13        -7.4200   -1.3240   -0.8470 H         1 QGE1        0.0000
     38 H14        -6.6500   -2.4370    0.3090 H         1 QGE1        0.0000
     39 H15        -7.6810   -1.1120    0.9010 H         1 QGE1        0.0000
     40 H16         2.0450   -2.4620   -1.0940 H         1 QGE1        0.0000
     41 H17        -2.4990   -2.3160   -0.8790 H         1 QGE1        0.0000
@<TRIPOS>BOND
     1    8    9 1
     2    7    8 1
     3    5    6 1
     4    7   11 1
     5    5   22 1
     6   12   22 1
     7    5   23 2
     8   11   12 2
     9    1   11 1
    10   12   13 1
    11    1   14 2
    12   13   15 2
    13   14   15 1
    14   14   18 1
    15   18   21 2
    16   15   20 1
    17   17   18 1
    18   16   20 1
    19   16   17 2
    20    2   17 1
    21    2   24 1
    22    4   24 1
    23    2   19 2
    24    3   19 1
    25    3    4 2
    26    3   10 1
    27    1   25 1
    28    4   26 1
    29    6   27 1
    30    6   28 1
    31    6   29 1
    32    7   30 1
    33    7   31 1
    34    8   32 1
    35    8   33 1
    36    9   34 1
    37    9   35 1
    38    9   36 1
    39   10   37 1
    40   10   38 1
    41   10   39 1
    42   13   40 1
    43   16   41 1
@<TRIPOS>SUBSTRUCTURE
     1 QGE1        1 RESIDUE           4 A     QGE     0 ROOT
