# created with PyMOL 2.3.5
@<TRIPOS>MOLECULE
8D3
65 67 1 0 0
SMALL
USER_CHARGES


@<TRIPOS>ATOM
      1 C1         -2.3900    0.9160   -0.3270 C.2       1 8D31        0.0000
      2 O1         -2.4860    2.2440   -0.6000 O.3       1 8D31        0.0000
      3 O2         -4.5410   -1.9820    0.2530 O.3       1 8D31        0.0000
      4 C2         -1.1420    0.3300   -0.1790 C.2       1 8D31        0.0000
      5 C3         -1.0450   -1.0190    0.1040 C.2       1 8D31        0.0000
      6 C5         -3.5420    0.1530   -0.1900 C.2       1 8D31        0.0000
      7 C6         -5.8010   -1.4880   -0.2070 C.3       1 8D31        0.0000
      8 C4         -2.1880   -1.7800    0.2430 C.2       1 8D31        0.0000
      9 C10        -7.3620    1.9860    0.1460 C.2       1 8D31        0.0000
     10 C11        -6.3070    2.7160    0.3300 C.2       1 8D31        0.0000
     11 C12        -4.9010    2.1850    0.3120 C.3       1 8D31        0.0000
     12 C13        -4.8820    0.8130   -0.3620 C.3       1 8D31        0.0000
     13 C14        -6.9300   -2.3620    0.3430 C.3       1 8D31        0.0000
     14 C15        -5.8340   -1.5060   -1.7370 C.3       1 8D31        0.0000
     15 C16        -6.5030    4.1890    0.5770 C.3       1 8D31        0.0000
     16 C17         0.3100   -1.6600    0.2620 C.3       1 8D31        0.0000
     17 C18         1.3990   -0.6040    0.0610 C.3       1 8D31        0.0000
     18 C19         0.4310   -2.2570    1.6660 C.3       1 8D31        0.0000
     19 C20         0.4750   -2.7680   -0.7790 C.3       1 8D31        0.0000
     20 C21         2.7750   -1.2540    0.2220 C.3       1 8D31        0.0000
     21 C22         3.8650   -0.1990    0.0200 C.3       1 8D31        0.0000
     22 C23         5.2400   -0.8490    0.1810 C.3       1 8D31        0.0000
     23 C24         6.3300    0.2060   -0.0200 C.3       1 8D31        0.0000
     24 C25         7.7050   -0.4440    0.1400 C.3       1 8D31        0.0000
     25 C7         -3.4440   -1.1990    0.0940 C.2       1 8D31        0.0000
     26 C8         -5.9660   -0.0530    0.2960 C.3       1 8D31        0.0000
     27 C9         -7.3290    0.5060   -0.1150 C.3       1 8D31        0.0000
     28 BR1         9.1050    0.9120   -0.1190 Br        1 8D31        0.0000
     29 H1         -2.5280    2.8050    0.1860 H         1 8D31        0.0000
     30 H2         -0.2480    0.9260   -0.2870 H         1 8D31        0.0000
     31 H3         -2.1070   -2.8340    0.4640 H         1 8D31        0.0000
     32 H4         -8.3250    2.4730    0.1820 H         1 8D31        0.0000
     33 H5         -4.2610    2.8710   -0.2430 H         1 8D31        0.0000
     34 H6         -4.5340    2.0930    1.3340 H         1 8D31        0.0000
     35 H7         -5.0990    0.9260   -1.4240 H         1 8D31        0.0000
     36 H8         -6.9090   -2.3380    1.4330 H         1 8D31        0.0000
     37 H9         -7.8890   -1.9820   -0.0100 H         1 8D31        0.0000
     38 H10        -6.7970   -3.3870   -0.0010 H         1 8D31        0.0000
     39 H11        -5.6950   -2.5280   -2.0910 H         1 8D31        0.0000
     40 H12        -6.7950   -1.1290   -2.0840 H         1 8D31        0.0000
     41 H13        -5.0340   -0.8750   -2.1250 H         1 8D31        0.0000
     42 H14        -7.5680    4.4220    0.5610 H         1 8D31        0.0000
     43 H15        -6.0880    4.4530    1.5500 H         1 8D31        0.0000
     44 H16        -5.9940    4.7590   -0.2010 H         1 8D31        0.0000
     45 H17         1.3130   -0.1790   -0.9390 H         1 8D31        0.0000
     46 H18         1.2820    0.1850    0.8030 H         1 8D31        0.0000
     47 H19         1.4110   -2.7200    1.7800 H         1 8D31        0.0000
     48 H20         0.3140   -1.4670    2.4080 H         1 8D31        0.0000
     49 H21        -0.3450   -3.0080    1.8090 H         1 8D31        0.0000
     50 H22         0.3890   -2.3430   -1.7790 H         1 8D31        0.0000
     51 H23         1.4550   -3.2310   -0.6650 H         1 8D31        0.0000
     52 H24        -0.3010   -3.5200   -0.6360 H         1 8D31        0.0000
     53 H25         2.8620   -1.6800    1.2220 H         1 8D31        0.0000
     54 H26         2.8930   -2.0440   -0.5210 H         1 8D31        0.0000
     55 H27         3.7780    0.2260   -0.9790 H         1 8D31        0.0000
     56 H28         3.7470    0.5910    0.7620 H         1 8D31        0.0000
     57 H29         5.3270   -1.2750    1.1810 H         1 8D31        0.0000
     58 H30         5.3580   -1.6390   -0.5610 H         1 8D31        0.0000
     59 H31         6.2430    0.6320   -1.0200 H         1 8D31        0.0000
     60 H32         6.2120    0.9960    0.7220 H         1 8D31        0.0000
     61 H33         7.7920   -0.8690    1.1400 H         1 8D31        0.0000
     62 H34         7.8230   -1.2340   -0.6020 H         1 8D31        0.0000
     63 H35        -5.8510   -0.0270    1.3790 H         1 8D31        0.0000
     64 H36        -8.1120    0.0180    0.4660 H         1 8D31        0.0000
     65 H37        -7.4940    0.3200   -1.1760 H         1 8D31        0.0000
@<TRIPOS>BOND
     1   23   24 1
     2   24   28 1
     3   16   18 1
     4   22   23 1
     5   21   22 1
     6   20   21 1
     7   17   20 1
     8   16   17 1
     9   16   19 1
    10    5   16 1
    11    4    5 1
    12    1    4 2
    13    5    8 2
    14    1    2 1
    15    1    6 1
    16    8   25 1
    17    6   25 2
    18    6   12 1
    19   10   11 1
    20   11   12 1
    21   10   15 1
    22    3   25 1
    23    9   10 2
    24   12   26 1
    25    3    7 1
    26    7   26 1
    27   26   27 1
    28    9   27 1
    29    7   14 1
    30    7   13 1
    31    2   29 1
    32    4   30 1
    33    8   31 1
    34    9   32 1
    35   11   33 1
    36   11   34 1
    37   12   35 1
    38   13   36 1
    39   13   37 1
    40   13   38 1
    41   14   39 1
    42   14   40 1
    43   14   41 1
    44   15   42 1
    45   15   43 1
    46   15   44 1
    47   17   45 1
    48   17   46 1
    49   18   47 1
    50   18   48 1
    51   18   49 1
    52   19   50 1
    53   19   51 1
    54   19   52 1
    55   20   53 1
    56   20   54 1
    57   21   55 1
    58   21   56 1
    59   22   57 1
    60   22   58 1
    61   23   59 1
    62   23   60 1
    63   24   61 1
    64   24   62 1
    65   26   63 1
    66   27   64 1
    67   27   65 1
@<TRIPOS>SUBSTRUCTURE
     1 8D31        1 RESIDUE           4 A     8D3     0 ROOT
