# created with PyMOL 2.3.5
@<TRIPOS>MOLECULE
2CV
63 62 1                 
SMALL
USER_CHARGES
@<TRIPOS>ATOM
1	  C9	8.927	0.994	-0.381	C.3	1	2CV0	0.000	
2	 C12	7.550	1.296	0.214	C.3	1	2CV0	0.000	
3	 C15	6.532	0.284	-0.316	C.3	1	2CV0	0.000	
4	 C18	5.156	0.586	0.280	C.3	1	2CV0	0.000	
5	 C21	4.138	-0.426	-0.251	C.3	1	2CV0	0.000	
6	 C24	2.761	-0.124	0.345	C.3	1	2CV0	0.000	
7	 C27	1.743	-1.136	-0.186	C.3	1	2CV0	0.000	
8	 C30	0.387	-0.839	0.401	C.2	1	2CV0	0.000	
9	 N33	-0.672	-1.606	0.073	N.pl3	1	2CV0	0.000	
10	 O34	0.249	0.091	1.167	O.2	1	2CV0	0.000	
11	 C35	-0.504	-2.729	-0.852	C.3	1	2CV0	0.000	
12	 C36	-1.990	-1.317	0.643	C.3	1	2CV0	0.000	
13	 C37	-2.738	-0.343	-0.269	C.3	1	2CV0	0.000	
14	 C40	-4.062	0.056	0.386	C.3	1	2CV0	0.000	
15	 C41	-4.810	1.029	-0.527	C.3	1	2CV0	0.000	
16	 C42	-6.133	1.428	0.129	C.3	1	2CV0	0.000	
17	 C43	-6.881	2.402	-0.784	C.3	1	2CV0	0.000	
18	 O44	-8.167	2.684	-0.228	O.3	1	2CV0	0.000	
19	 O47	-2.999	-0.973	-1.525	O.3	1	2CV0	0.000	
20	 O49	-3.800	0.685	1.642	O.3	1	2CV0	0.000	
21	 O51	-5.071	0.400	-1.783	O.3	1	2CV0	0.000	
22	 O53	-5.872	2.058	1.385	O.3	1	2CV0	0.000	
23	 C60	-0.157	-3.993	-0.064	C.3	1	2CV0	0.000	
24	 O63	-1.260	-4.352	0.771	O.3	1	2CV0	0.000	
25	  C1	9.945	2.006	0.149	C.3	1	2CV0	0.000	
26	  C0	11.321	1.704	-0.446	C.3	1	2CV0	0.000	
27	H91C	9.233	-0.013	-0.096	 H	1	2CV0	0.000	
28	H92C	8.876	1.065	-1.468	 H	1	2CV0	0.000	
29	H121	7.601	1.225	1.301	 H	1	2CV0	0.000	
30	H122	7.244	2.302	-0.070	 H	1	2CV0	0.000	
31	H11C	9.639	3.012	-0.135	 H	1	2CV0	0.000	
32	H12C	9.995	1.935	1.236	 H	1	2CV0	0.000	
33	H151	6.482	0.355	-1.402	 H	1	2CV0	0.000	
34	H152	6.839	-0.723	-0.031	 H	1	2CV0	0.000	
35	H181	5.206	0.515	1.366	 H	1	2CV0	0.000	
36	H182	4.849	1.592	-0.005	 H	1	2CV0	0.000	
37	H211	4.087	-0.355	-1.337	 H	1	2CV0	0.000	
38	H212	4.444	-1.433	0.034	 H	1	2CV0	0.000	
39	H241	2.812	-0.195	1.431	 H	1	2CV0	0.000	
40	H242	2.455	0.882	0.060	 H	1	2CV0	0.000	
41	H271	1.693	-1.065	-1.272	 H	1	2CV0	0.000	
42	H272	2.049	-2.143	0.099	 H	1	2CV0	0.000	
43	H351	-1.431	-2.888	-1.403	 H	1	2CV0	0.000	
44	H352	0.301	-2.505	-1.553	 H	1	2CV0	0.000	
45	H361	-2.559	-2.243	0.731	 H	1	2CV0	0.000	
46	H362	-1.869	-0.870	1.630	 H	1	2CV0	0.000	
47	H601	0.055	-4.807	-0.757	 H	1	2CV0	0.000	
48	H602	0.721	-3.805	0.555	 H	1	2CV0	0.000	
49	 H37	-2.128	0.546	-0.428	 H	1	2CV0	0.000	
50	 H40	-4.671	-0.834	0.545	 H	1	2CV0	0.000	
51	 H47	-3.537	-1.773	-1.460	 H	1	2CV0	0.000	
52	 H41	-4.200	1.919	-0.686	 H	1	2CV0	0.000	
53	 H49	-3.262	1.485	1.577	 H	1	2CV0	0.000	
54	 H42	-6.742	0.538	0.288	 H	1	2CV0	0.000	
55	 H51	-5.609	-0.401	-1.717	 H	1	2CV0	0.000	
56	H431	-6.312	3.328	-0.872	 H	1	2CV0	0.000	
57	H432	-7.002	1.955	-1.771	 H	1	2CV0	0.000	
58	 H53	-5.334	2.858	1.319	 H	1	2CV0	0.000	
59	 H44	-8.698	3.296	-0.755	 H	1	2CV0	0.000	
60	 H63	-1.110	-5.147	1.301	 H	1	2CV0	0.000	
61	H01C	11.628	0.697	-0.162	 H	1	2CV0	0.000	
62	H02C	11.271	1.775	-1.533	 H	1	2CV0	0.000	
63	H03C	12.047	2.425	-0.068	 H	1	2CV0	0.000	
@<TRIPOS>BOND
1 1 2 1
2 1 25 1
3 2 3 1
4 3 4 1
5 4 5 1
6 5 6 1
7 6 7 1
8 7 8 1
9 8 9 1
10 8 10 2
11 9 11 1
12 9 12 1
13 11 23 1
14 12 13 1
15 13 14 1
16 13 19 1
17 14 15 1
18 14 20 1
19 15 16 1
20 15 21 1
21 16 17 1
22 16 22 1
23 17 18 1
24 23 24 1
25 25 26 1
26 1 27 1
27 1 28 1
28 2 29 1
29 2 30 1
30 25 31 1
31 25 32 1
32 3 33 1
33 3 34 1
34 4 35 1
35 4 36 1
36 5 37 1
37 5 38 1
38 6 39 1
39 6 40 1
40 7 41 1
41 7 42 1
42 11 43 1
43 11 44 1
44 12 45 1
45 12 46 1
46 23 47 1
47 23 48 1
48 13 49 1
49 14 50 1
50 19 51 1
51 15 52 1
52 20 53 1
53 16 54 1
54 21 55 1
55 17 56 1
56 17 57 1
57 22 58 1
58 18 59 1
59 24 60 1
60 26 61 1
61 26 62 1
62 26 63 1
@<TRIPOS>SUBSTRUCTURE
1	2CV0	1	GROUP	1 ****	2CV
