@<TRIPOS>MOLECULE
    200
   56    57     0     0     0
SMALL
USER_CHARGES


@<TRIPOS>ATOM
      1 X         185.3130  -11.0940   54.7390 N.4        1 200      0.000000
      2 X         186.6330  -11.0740   54.0900 C.3        1 200      0.000000
      3 X         187.1420   -9.6510   53.7690 C.2        1 200      0.000000
      4 X         186.3680   -8.8360   53.2590 O.2        1 200      0.000000
      5 X         186.6280  -11.9800   52.8750 C.3        1 200      0.000000
      6 X         187.1700  -13.3200   53.3900 C.3        1 200      0.000000
      7 X         186.4510  -14.5220   52.7880 C.3        1 200      0.000000
      8 X         187.2410  -15.7690   53.1940 C.3        1 200      0.000000
      9 X         187.3379  -11.5062   54.8002 H          1 200      0.000000
     10 X         187.2731  -11.5789   52.0933 H          1 200      0.000000
     11 X         185.6120  -12.1028   52.4999 H          1 200      0.000000
     12 X         188.2285  -13.3865   53.1387 H          1 200      0.000000
     13 X         187.0621  -13.3510   54.4742 H          1 200      0.000000
     14 X         185.4338  -14.5815   53.1752 H          1 200      0.000000
     15 X         186.4293  -14.4347   51.7017 H          1 200      0.000000
     16 X         185.3253  -10.4881   55.5470 H          1 200      0.000000
     17 X         185.0948  -12.0366   55.0287 H          1 200      0.000000
     18 X         184.6123  -10.7715   54.0870 H          1 200      0.000000
     19 X         186.7586  -16.6554   52.7821 H          1 200      0.000000
     20 X         187.2692  -15.8430   54.2811 H          1 200      0.000000
     21 X         188.2579  -15.6964   52.8083 H          1 200      0.000000
     22 X         188.4170   -9.3240   54.1100 N.am       2 200      0.000000
     23 X         188.9110   -7.9520   53.8900 C.3        2 200      0.000000
     24 X         189.1550   -7.5710   52.4340 C.2        2 200      0.000000
     25 X         189.4950   -6.4200   52.1630 O.2        2 200      0.000000
     26 X         190.1970   -7.9020   54.7190 C.3        2 200      0.000000
     27 X         190.6730   -9.3030   54.7500 C.3        2 200      0.000000
     28 X         189.4450  -10.1670   54.7580 C.3        2 200      0.000000
     29 X         188.1939   -7.2512   54.3176 H          2 200      0.000000
     30 X         189.9914   -7.5427   55.7274 H          2 200      0.000000
     31 X         190.9347   -7.2631   54.2335 H          2 200      0.000000
     32 X         191.2776   -9.5153   53.8683 H          2 200      0.000000
     33 X         191.2574   -9.4779   55.6533 H          2 200      0.000000
     34 X         189.1542  -10.4189   55.7778 H          2 200      0.000000
     35 X         189.6146  -11.0733   54.1766 H          2 200      0.000000
     36 N         188.6730   -8.0430   51.2510 N.am       3 200      0.000000
     37 CA        188.6800   -8.0150   49.7760 C.3        3 200      0.000000
     38 C         187.5200   -8.8340   49.1790 C.2        3 200      0.000000
     39 O         187.1120   -8.3330   48.0420 O.co2      3 200      0.000000
     40 OXT       187.0410   -9.8190   49.7030 O.co2      3 200      0.000000
     41 CB        190.0030   -8.5940   49.2400 C.3        3 200      0.000000
     42 CG        191.2480   -7.8800   49.7090 C.ar       3 200      0.000000
     43 CD1       191.5820   -6.6280   49.2090 C.ar       3 200      0.000000
     44 CD2       192.1100   -8.4800   50.6200 C.ar       3 200      0.000000
     45 CE1       192.7530   -5.9940   49.5910 C.ar       3 200      0.000000
     46 CE2       193.2830   -7.8550   51.0120 C.ar       3 200      0.000000
     47 CZ        193.5920   -6.6180   50.4880 C.ar       3 200      0.000000
     48 CL        195.0740   -5.8350   50.9600 Cl         3 200      0.000000
     49 H         187.9878   -8.7414   51.5015 H          3 200      0.000000
     50 HA        188.5882   -6.9810   49.4434 H          3 200      0.000000
     51 HB2       189.9761   -8.5470   48.1513 H          3 200      0.000000
     52 HB3       190.0699   -9.6398   49.5399 H          3 200      0.000000
     53 HD1       190.9177   -6.1406   48.5107 H          3 200      0.000000
     54 HD2       191.8615   -9.4484   51.0286 H          3 200      0.000000
     55 HE1       193.0049   -5.0231   49.1908 H          3 200      0.000000
     56 HE2       193.9465   -8.3309   51.7189 H          3 200      0.000000
@<TRIPOS>BOND
     1    1    2 1
     2    1   16 1
     3    1   17 1
     4    1   18 1
     5    2    3 1
     6    2    5 1
     7    2    9 1
     8    3    4 2
     9    3   22 am
    10    5    6 1
    11    5   10 1
    12    5   11 1
    13    6    7 1
    14    6   12 1
    15    6   13 1
    16    7    8 1
    17    7   14 1
    18    7   15 1
    19    8   19 1
    20    8   20 1
    21    8   21 1
    22   22   23 1
    23   22   28 1
    24   23   24 1
    25   23   26 1
    26   23   29 1
    27   24   25 2
    28   24   36 am
    29   26   27 1
    30   26   30 1
    31   26   31 1
    32   27   28 1
    33   27   32 1
    34   27   33 1
    35   28   34 1
    36   28   35 1
    37   36   37 1
    38   36   49 1
    39   37   38 1
    40   37   41 1
    41   37   50 1
    42   38   39 2
    43   38   40 1
    44   41   42 1
    45   41   51 1
    46   41   52 1
    47   42   43 ar
    48   42   44 ar
    49   43   45 ar
    50   43   53 1
    51   44   46 ar
    52   44   54 1
    53   45   47 ar
    54   45   55 1
    55   46   47 ar
    56   46   56 1
    57   47   48 1
