# created with PyMOL 2.3.5
@<TRIPOS>MOLECULE
9GL
57 60 1 0 0
SMALL
USER_CHARGES


@<TRIPOS>ATOM
      1 CAA         3.9840    3.1160    1.1070 C.3       1 9GL1        0.0000
      2 CAB         3.9810    2.4820   -0.2850 C.3       1 9GL1        0.0000
      3 CAC         4.0500    0.9830   -0.1550 C.2       1 9GL1        0.0000
      4 CAD         2.9910    0.1370   -0.0610 C.2       1 9GL1        0.0000
      5 CAE         1.5760    0.5380   -0.0710 C.2       1 9GL1        0.0000
      6 CAG        -0.7990    0.0030    0.0200 C.3       1 9GL1        0.0000
      7 CAH        -1.6830   -1.2400    0.1450 C.3       1 9GL1        0.0000
      8 CAI        -3.1320   -0.8290    0.1360 C.2       1 9GL1        0.0000
      9 CAJ        -3.7730   -0.5300    1.3250 C.2       1 9GL1        0.0000
     10 CAK        -5.1010   -0.1530    1.3200 C.2       1 9GL1        0.0000
     11 CAL        -5.7940   -0.0740    0.1190 C.2       1 9GL1        0.0000
     12 CAN        -7.6720    0.3250   -1.2580 C.3       1 9GL1        0.0000
     13 CAO        -9.0960    0.8840   -1.2450 C.3       1 9GL1        0.0000
     14 CAP        -9.9740    0.0080   -0.3460 C.3       1 9GL1        0.0000
     15 CAQ        -9.3700   -0.0320    1.0610 C.3       1 9GL1        0.0000
     16 CAR        -7.9380   -0.5650    0.9800 C.3       1 9GL1        0.0000
     17 CAS        -5.1480   -0.3740   -1.0740 C.2       1 9GL1        0.0000
     18 CAT        -3.8180   -0.7450   -1.0620 C.2       1 9GL1        0.0000
     19 CAW         4.8300   -1.1430    0.0130 C.2       1 9GL1        0.0000
     20 CAX         5.7970   -2.1420    0.0810 C.2       1 9GL1        0.0000
     21 CAY         7.1310   -1.8080    0.0230 C.2       1 9GL1        0.0000
     22 CAZ         7.5250   -0.4810   -0.1020 C.2       1 9GL1        0.0000
     23 CBB         6.5950    0.5160   -0.1730 C.2       1 9GL1        0.0000
     24 CBC         5.2310    0.2020   -0.1140 C.2       1 9GL1        0.0000
     25 NAF         0.6100   -0.3960    0.0290 N.pl3     1 9GL1        0.0000
     26 NAM        -7.1380    0.3070    0.1100 N.pl3     1 9GL1        0.0000
     27 NAV         3.4550   -1.1600    0.0430 N.pl3     1 9GL1        0.0000
     28 OAU         1.2780    1.7130   -0.1680 O.2       1 9GL1        0.0000
     29 CL          9.2140   -0.0870   -0.1750 Cl        1 9GL1        0.0000
     30 H1          3.9340    4.2010    1.0130 H         1 9GL1        0.0000
     31 H2          3.1220    2.7600    1.6700 H         1 9GL1        0.0000
     32 H3          4.8990    2.8390    1.6300 H         1 9GL1        0.0000
     33 H4          3.0660    2.7600   -0.8090 H         1 9GL1        0.0000
     34 H5          4.8440    2.8380   -0.8490 H         1 9GL1        0.0000
     35 H6         -1.0250    0.5170   -0.9140 H         1 9GL1        0.0000
     36 H7         -0.9930    0.6720    0.8590 H         1 9GL1        0.0000
     37 H8         -1.4890   -1.9090   -0.6930 H         1 9GL1        0.0000
     38 H9         -1.4570   -1.7530    1.0800 H         1 9GL1        0.0000
     39 H10        -3.2330   -0.5930    2.2580 H         1 9GL1        0.0000
     40 H11        -5.6010    0.0790    2.2490 H         1 9GL1        0.0000
     41 H12        -7.6830   -0.6900   -1.6560 H         1 9GL1        0.0000
     42 H13        -7.0400    0.9540   -1.8850 H         1 9GL1        0.0000
     43 H14        -9.0830    1.9030   -0.8590 H         1 9GL1        0.0000
     44 H15        -9.4970    0.8820   -2.2580 H         1 9GL1        0.0000
     45 H16       -10.9790    0.4280   -0.2990 H         1 9GL1        0.0000
     46 H17       -10.0190   -1.0020   -0.7530 H         1 9GL1        0.0000
     47 H18        -9.3620    0.9730    1.4820 H         1 9GL1        0.0000
     48 H19        -9.9680   -0.6880    1.6940 H         1 9GL1        0.0000
     49 H20        -7.5000   -0.5820    1.9780 H         1 9GL1        0.0000
     50 H21        -7.9480   -1.5750    0.5710 H         1 9GL1        0.0000
     51 H22        -5.6850   -0.3130   -2.0090 H         1 9GL1        0.0000
     52 H23        -3.3140   -0.9740   -1.9890 H         1 9GL1        0.0000
     53 H24         5.5010   -3.1760    0.1790 H         1 9GL1        0.0000
     54 H25         7.8790   -2.5850    0.0770 H         1 9GL1        0.0000
     55 H26         6.9090    1.5450   -0.2700 H         1 9GL1        0.0000
     56 H27         0.8480   -1.3340    0.1070 H         1 9GL1        0.0000
     57 H28         2.9020   -1.9530    0.1230 H         1 9GL1        0.0000
@<TRIPOS>BOND
     1   22   29 1
     2   22   23 2
     3   21   22 1
     4   23   24 1
     5    1    2 1
     6   20   21 2
     7    2    3 1
     8    3   24 1
     9   19   24 2
    10    3    4 2
    11   19   20 1
    12   19   27 1
    13    4   27 1
    14    4    5 1
    15    5   25 1
    16    5   28 2
    17    6   25 1
    18    6    7 1
    19    7    8 1
    20    8   18 2
    21    8    9 1
    22   17   18 1
    23    9   10 2
    24   11   17 2
    25   10   11 1
    26   11   26 1
    27   12   26 1
    28   16   26 1
    29   12   13 1
    30   13   14 1
    31   15   16 1
    32   14   15 1
    33    1   30 1
    34    1   31 1
    35    1   32 1
    36    2   33 1
    37    2   34 1
    38    6   35 1
    39    6   36 1
    40    7   37 1
    41    7   38 1
    42    9   39 1
    43   10   40 1
    44   12   41 1
    45   12   42 1
    46   13   43 1
    47   13   44 1
    48   14   45 1
    49   14   46 1
    50   15   47 1
    51   15   48 1
    52   16   49 1
    53   16   50 1
    54   17   51 1
    55   18   52 1
    56   20   53 1
    57   21   54 1
    58   23   55 1
    59   25   56 1
    60   27   57 1
@<TRIPOS>SUBSTRUCTURE
     1 9GL1        1 RESIDUE           4 A     9GL     0 ROOT
