# created with PyMOL 2.3.5
@<TRIPOS>MOLECULE
NRE
50 52 1 0 0
SMALL
USER_CHARGES


@<TRIPOS>ATOM
      1 C1          0.6370    2.6040    1.2390 C.3       1 NRE1        0.0000
      2 O2          1.9460    2.0740    1.4560 O.3       1 NRE1        0.0000
      3 C3          2.7880    2.0570    0.3930 C.2       1 NRE1        0.0000
      4 C4          3.6160    3.1430    0.1400 C.2       1 NRE1        0.0000
      5 C5          4.4730    3.1230   -0.9440 C.2       1 NRE1        0.0000
      6 C6          4.5120    2.0240   -1.7850 C.2       1 NRE1        0.0000
      7 C7          3.6980    0.9380   -1.5490 C.2       1 NRE1        0.0000
      8 C8          2.8310    0.9410   -0.4540 C.2       1 NRE1        0.0000
      9 C9          1.9570   -0.2190   -0.1960 C.2       1 NRE1        0.0000
     10 O10         0.8210   -0.0480    0.2020 O.2       1 NRE1        0.0000
     11 N11         2.4170   -1.4690   -0.4020 N.pl3     1 NRE1        0.0000
     12 C12         3.8230   -1.6990   -0.7610 C.3       1 NRE1        0.0000
     13 C13         4.4250   -2.7080    0.2220 C.3       1 NRE1        0.0000
     14 C14         4.4590   -2.0970    1.6240 C.3       1 NRE1        0.0000
     15 C15         3.5650   -3.9740    0.2370 C.3       1 NRE1        0.0000
     16 C16         2.1500   -3.6260    0.7070 C.3       1 NRE1        0.0000
     17 C17         1.5250   -2.6280   -0.2650 C.3       1 NRE1        0.0000
     18 C18         0.1670   -2.1710    0.2720 C.3       1 NRE1        0.0000
     19 N19        -0.5280   -1.3920   -0.7560 N.pl3     1 NRE1        0.0000
     20 C20        -1.8300   -0.9550   -0.5360 C.2       1 NRE1        0.0000
     21 C21        -2.4640   -1.2570    0.6650 C.2       1 NRE1        0.0000
     22 C22        -3.7590   -0.8170    0.8710 C.2       1 NRE1        0.0000
     23 C23        -4.3790   -0.0860   -0.1350 C.2       1 NRE1        0.0000
     24 C24        -3.6890    0.1770   -1.3020 C.2       1 NRE1        0.0000
     25 N25        -2.4520   -0.2520   -1.4690 N.2       1 NRE1        0.0000
     26 BR1        -6.1480    0.5410    0.0910 Br        1 NRE1        0.0000
     27 F27         3.5830    4.2200    0.9560 F         1 NRE1        0.0000
     28 H28         0.0680    2.5590    2.1680 H         1 NRE1        0.0000
     29 H30         0.7150    3.6410    0.9110 H         1 NRE1        0.0000
     30 H29         0.1300    2.0170    0.4730 H         1 NRE1        0.0000
     31 H31         5.1140    3.9700   -1.1370 H         1 NRE1        0.0000
     32 H32         5.1850    2.0170   -2.6300 H         1 NRE1        0.0000
     33 H33         3.7320    0.0830   -2.2090 H         1 NRE1        0.0000
     34 H34         3.8810   -2.0970   -1.7740 H         1 NRE1        0.0000
     35 H35         4.3730   -0.7590   -0.7050 H         1 NRE1        0.0000
     36 H36         5.4380   -2.9610   -0.0900 H         1 NRE1        0.0000
     37 H37         3.4460   -1.8460    1.9360 H         1 NRE1        0.0000
     38 H39         4.8870   -2.8150    2.3230 H         1 NRE1        0.0000
     39 H38         5.0700   -1.1940    1.6120 H         1 NRE1        0.0000
     40 H40         3.5210   -4.3930   -0.7680 H         1 NRE1        0.0000
     41 H41         4.0030   -4.7050    0.9160 H         1 NRE1        0.0000
     42 H43         1.5450   -4.5320    0.7400 H         1 NRE1        0.0000
     43 H42         2.1960   -3.1820    1.7010 H         1 NRE1        0.0000
     44 H44         1.3940   -3.0990   -1.2400 H         1 NRE1        0.0000
     45 H45        -0.4320   -3.0430    0.5340 H         1 NRE1        0.0000
     46 H46         0.3160   -1.5530    1.1580 H         1 NRE1        0.0000
     47 H47        -0.0800   -1.1810   -1.5900 H         1 NRE1        0.0000
     48 H48        -1.9530   -1.8280    1.4260 H         1 NRE1        0.0000
     49 H49        -4.2770   -1.0360    1.7930 H         1 NRE1        0.0000
     50 H50        -4.1670    0.7440   -2.0870 H         1 NRE1        0.0000
@<TRIPOS>BOND
     1   15   16 1
     2   13   15 1
     3   13   14 1
     4   18   19 1
     5   17   18 1
     6   16   17 1
     7   12   13 1
     8   19   20 1
     9   11   17 1
    10   11   12 1
    11   20   25 2
    12   20   21 1
    13   24   25 1
    14   21   22 2
    15    9   11 1
    16   23   24 2
    17   22   23 1
    18   23   26 1
    19    9   10 2
    20    8    9 1
    21    7    8 2
    22    3    8 1
    23    6    7 1
    24    2    3 1
    25    1    2 1
    26    3    4 2
    27    5    6 2
    28    4    5 1
    29    4   27 1
    30    1   28 1
    31    1   29 1
    32    1   30 1
    33    5   31 1
    34    6   32 1
    35    7   33 1
    36   12   34 1
    37   12   35 1
    38   13   36 1
    39   14   37 1
    40   14   38 1
    41   14   39 1
    42   15   40 1
    43   15   41 1
    44   16   42 1
    45   16   43 1
    46   17   44 1
    47   18   45 1
    48   18   46 1
    49   19   47 1
    50   21   48 1
    51   22   49 1
    52   24   50 1
@<TRIPOS>SUBSTRUCTURE
     1 NRE1        1 RESIDUE           4 A     NRE     0 ROOT
