# created with PyMOL 2.3.5
@<TRIPOS>MOLECULE
ZMA
40 43 1 0 0
SMALL
USER_CHARGES


@<TRIPOS>ATOM
      1 C1         -5.5820    0.4840    1.1970 C.2       1 ZMA1        0.0000
      2 C2         -6.7750   -0.2120    1.2020 C.2       1 ZMA1        0.0000
      3 C3         -7.3730   -0.5690    0.0020 C.2       1 ZMA1        0.0000
      4 O4         -8.5470   -1.2530    0.0030 O.3       1 ZMA1        0.0000
      5 C5         -6.7710   -0.2260   -1.2000 C.2       1 ZMA1        0.0000
      6 C6         -5.5770    0.4700   -1.1990 C.2       1 ZMA1        0.0000
      7 C7         -4.9860    0.8300   -0.0020 C.2       1 ZMA1        0.0000
      8 C8         -3.6850    1.5900   -0.0030 C.3       1 ZMA1        0.0000
      9 C9         -2.5170    0.6010   -0.0020 C.3       1 ZMA1        0.0000
     10 N10        -1.2520    1.3390   -0.0040 N.pl3     1 ZMA1        0.0000
     11 C11        -0.0540    0.6550   -0.0030 C.2       1 ZMA1        0.0000
     12 N12         1.0810    1.3340    0.0010 N.2       1 ZMA1        0.0000
     13 N13        -0.0620   -0.6800   -0.0000 N.2       1 ZMA1        0.0000
     14 C14         1.0700   -1.3610    0.0010 C.2       1 ZMA1        0.0000
     15 N15         1.0530   -2.7310    0.0030 N.pl3     1 ZMA1        0.0000
     16 N16         2.2560   -0.6870   -0.0010 N.pl3     1 ZMA1        0.0000
     17 N17         3.5990   -1.0820    0.0000 N.2       1 ZMA1        0.0000
     18 C18         2.2540    0.6840    0.0020 C.2       1 ZMA1        0.0000
     19 N19         3.5140    1.0850    0.0050 N.2       1 ZMA1        0.0000
     20 C20         4.3250    0.0190   -0.0020 C.2       1 ZMA1        0.0000
     21 C21         5.8020    0.0690   -0.0020 C.2       1 ZMA1        0.0000
     22 C22         6.5620    1.1960   -0.0040 C.2       1 ZMA1        0.0000
     23 C23         7.9080    0.7780   -0.0030 C.2       1 ZMA1        0.0000
     24 C24         7.9030   -0.5700   -0.0010 C.2       1 ZMA1        0.0000
     25 O25         6.6290   -0.9940    0.0060 O.3       1 ZMA1        0.0000
     26 H1         -5.1170    0.7630    2.1310 H         1 ZMA1        0.0000
     27 H2         -7.2430   -0.4780    2.1380 H         1 ZMA1        0.0000
     28 HO4        -9.3320   -0.6880   -0.0020 H         1 ZMA1        0.0000
     29 H5         -7.2340   -0.5030   -2.1350 H         1 ZMA1        0.0000
     30 H6         -5.1080    0.7370   -2.1340 H         1 ZMA1        0.0000
     31 H8         -3.6310    2.2150   -0.8950 H         1 ZMA1        0.0000
     32 H8A        -3.6300    2.2180    0.8860 H         1 ZMA1        0.0000
     33 H9         -2.5720   -0.0240    0.8890 H         1 ZMA1        0.0000
     34 H9A        -2.5720   -0.0270   -0.8910 H         1 ZMA1        0.0000
     35 HN10       -1.2570    2.3090   -0.0050 H         1 ZMA1        0.0000
     36 HN15        0.2070   -3.2060    0.0040 H         1 ZMA1        0.0000
     37 HN1A        1.8880   -3.2260    0.0040 H         1 ZMA1        0.0000
     38 H22         6.2040    2.2150   -0.0060 H         1 ZMA1        0.0000
     39 H23         8.7790    1.4170   -0.0040 H         1 ZMA1        0.0000
     40 H24         8.7780   -1.2030    0.0010 H         1 ZMA1        0.0000
@<TRIPOS>BOND
     1    1    7 2
     2    1    2 1
     3    1   26 1
     4    2    3 2
     5    2   27 1
     6    3    5 1
     7    3    4 1
     8    4   28 1
     9    5    6 2
    10    5   29 1
    11    6    7 1
    12    6   30 1
    13    7    8 1
    14    8    9 1
    15    8   31 1
    16    8   32 1
    17    9   10 1
    18    9   33 1
    19    9   34 1
    20   10   11 1
    21   10   35 1
    22   11   12 2
    23   11   13 1
    24   12   18 1
    25   13   14 2
    26   14   16 1
    27   14   15 1
    28   15   36 1
    29   15   37 1
    30   16   17 1
    31   16   18 1
    32   17   20 2
    33   18   19 2
    34   19   20 1
    35   20   21 1
    36   21   22 2
    37   21   25 1
    38   22   23 1
    39   22   38 1
    40   23   24 2
    41   23   39 1
    42   24   25 1
    43   24   40 1
@<TRIPOS>SUBSTRUCTURE
     1 ZMA1        1 RESIDUE           4 A     ZMA     0 ROOT
