# created with PyMOL 2.3.5
@<TRIPOS>MOLECULE
K87
87 91 1 0 0
SMALL
USER_CHARGES


@<TRIPOS>ATOM
      1 S1         -4.3070   -0.9250    1.9110 S.O2      1 K871        0.0000
      2 C1         -4.7670    0.0560    0.5220 C.2       1 K871        0.0000
      3 N1         -2.8550   -1.6350    1.5500 N.pl3     1 K871        0.0000
      4 O1         -4.0570   -0.0200    2.9770 O.2       1 K871        0.0000
      5 O2         -5.2590   -1.9770    1.9920 O.2       1 K871        0.0000
      6 C2         -5.5240   -0.4960   -0.4950 C.2       1 K871        0.0000
      7 C3         -4.3770    1.3810    0.4520 C.2       1 K871        0.0000
      8 C4         -1.7230   -0.8500    1.3750 C.2       1 K871        0.0000
      9 C5         -5.8850    0.2740   -1.5840 C.2       1 K871        0.0000
     10 C6         -4.7380    2.1510   -0.6370 C.2       1 K871        0.0000
     11 C7         -0.4930   -1.4390    1.0700 C.2       1 K871        0.0000
     12 N2         -1.7950    0.4710    1.4890 N.2       1 K871        0.0000
     13 C8         -5.4890    1.5970   -1.6570 C.2       1 K871        0.0000
     14 C9          0.6150   -0.6080    0.9030 C.2       1 K871        0.0000
     15 O3         -0.3780   -2.7880    0.9400 O.3       1 K871        0.0000
     16 C10        -0.7190    1.2270    1.3230 C.2       1 K871        0.0000
     17 C11        -5.8830    2.4370   -2.8450 C.3       1 K871        0.0000
     18 N3          0.4650    0.7030    1.0380 N.2       1 K871        0.0000
     19 O4          1.8300   -1.1340    0.6070 O.3       1 K871        0.0000
     20 C12        -0.5710   -3.3290   -0.2920 C.2       1 K871        0.0000
     21 C13        -0.8430    2.6990    1.4590 C.2       1 K871        0.0000
     22 C14        -6.7040    1.5890   -3.8190 C.3       1 K871        0.0000
     23 C15        -6.7200    3.6270   -2.3730 C.3       1 K871        0.0000
     24 C16        -4.6230    2.9460   -3.5490 C.3       1 K871        0.0000
     25 C17         2.9140   -0.2160    0.4520 C.3       1 K871        0.0000
     26 C18        -0.4640   -4.7050   -0.4740 C.2       1 K871        0.0000
     27 C19        -0.8790   -2.5130   -1.3680 C.2       1 K871        0.0000
     28 N4          0.2310    3.4570    1.2930 N.2       1 K871        0.0000
     29 N5         -2.0270    3.2260    1.7390 N.2       1 K871        0.0000
     30 C20         4.1930   -0.9880    0.1230 C.3       1 K871        0.0000
     31 C21        -0.6610   -5.2520   -1.7320 C.2       1 K871        0.0000
     32 O5         -0.1670   -5.5110    0.5800 O.3       1 K871        0.0000
     33 C22        -1.0800   -3.0660   -2.6200 C.2       1 K871        0.0000
     34 C23         0.1550    4.7720    1.4080 C.2       1 K871        0.0000
     35 C24        -2.1730    4.5330    1.8670 C.2       1 K871        0.0000
     36 C25         5.3360   -0.0190   -0.0410 C.2       1 K871        0.0000
     37 C26        -0.9630   -4.4310   -2.8030 C.2       1 K871        0.0000
     38 C27        -0.0740   -6.9130    0.3190 C.3       1 K871        0.0000
     39 C28        -1.0670    5.3550    1.7050 C.2       1 K871        0.0000
     40 N6          6.5700   -0.4760   -0.3350 N.pl3     1 K871        0.0000
     41 O6          5.1460    1.1710    0.0930 O.2       1 K871        0.0000
     42 C29         7.6140    0.4270   -0.5650 C.2       1 K871        0.0000
     43 C30         7.4590    1.4480   -1.4930 C.2       1 K871        0.0000
     44 C31         8.8050    0.3070    0.1400 C.2       1 K871        0.0000
     45 C32         8.4910    2.3380   -1.7170 C.2       1 K871        0.0000
     46 C33         6.1670    1.5850   -2.2560 C.3       1 K871        0.0000
     47 C34         9.8330    1.2000   -0.0890 C.2       1 K871        0.0000
     48 C35         8.9740   -0.7960    1.1520 C.3       1 K871        0.0000
     49 C36         9.6780    2.2120   -1.0180 C.2       1 K871        0.0000
     50 H1         -2.7960   -2.5990    1.4620 H         1 K871        0.0000
     51 H2         -5.8320   -1.5300   -0.4380 H         1 K871        0.0000
     52 H3         -3.7900    1.8130    1.2490 H         1 K871        0.0000
     53 H4         -6.4750   -0.1570   -2.3790 H         1 K871        0.0000
     54 H5         -4.4330    3.1850   -0.6920 H         1 K871        0.0000
     55 H6         -7.6010    1.2260   -3.3180 H         1 K871        0.0000
     56 H7         -6.9880    2.1970   -4.6780 H         1 K871        0.0000
     57 H8         -6.1070    0.7410   -4.1550 H         1 K871        0.0000
     58 H9         -6.1360    4.2300   -1.6790 H         1 K871        0.0000
     59 H10        -7.0050    4.2340   -3.2320 H         1 K871        0.0000
     60 H11        -7.6180    3.2630   -1.8720 H         1 K871        0.0000
     61 H12        -4.0270    2.0990   -3.8850 H         1 K871        0.0000
     62 H13        -4.9080    3.5540   -4.4080 H         1 K871        0.0000
     63 H14        -4.0380    3.5500   -2.8550 H         1 K871        0.0000
     64 H15         2.6900    0.4780   -0.3590 H         1 K871        0.0000
     65 H16         3.0540    0.3410    1.3780 H         1 K871        0.0000
     66 H17        -0.9630   -1.4450   -1.2300 H         1 K871        0.0000
     67 H18         4.4180   -1.6810    0.9330 H         1 K871        0.0000
     68 H19         4.0540   -1.5450   -0.8030 H         1 K871        0.0000
     69 H20        -0.5790   -6.3190   -1.8760 H         1 K871        0.0000
     70 H21        -1.3160   -2.4280   -3.4590 H         1 K871        0.0000
     71 H22         1.0350    5.3840    1.2720 H         1 K871        0.0000
     72 H23        -3.1400    4.9560    2.0940 H         1 K871        0.0000
     73 H24        -1.1200   -4.8580   -3.7820 H         1 K871        0.0000
     74 H25         0.1680   -7.4390    1.2420 H         1 K871        0.0000
     75 H26        -1.0270   -7.2750   -0.0670 H         1 K871        0.0000
     76 H27         0.7090   -7.0940   -0.4180 H         1 K871        0.0000
     77 H28        -1.1580    6.4270    1.8040 H         1 K871        0.0000
     78 H29         6.7340   -1.4310   -0.3880 H         1 K871        0.0000
     79 H30         8.3720    3.1320   -2.4390 H         1 K871        0.0000
     80 H31         5.5400    2.3370   -1.7760 H         1 K871        0.0000
     81 H32         6.3800    1.8890   -3.2800 H         1 K871        0.0000
     82 H33         5.6450    0.6280   -2.2610 H         1 K871        0.0000
     83 H34        10.7600    1.1070    0.4580 H         1 K871        0.0000
     84 H35         9.3870   -1.6780    0.6630 H         1 K871        0.0000
     85 H36         9.6530   -0.4660    1.9390 H         1 K871        0.0000
     86 H37         8.0060   -1.0420    1.5880 H         1 K871        0.0000
     87 H38        10.4840    2.9090   -1.1950 H         1 K871        0.0000
@<TRIPOS>BOND
     1   33   37 2
     2   27   33 1
     3   31   37 1
     4   20   27 2
     5   26   31 2
     6   19   25 1
     7   25   30 1
     8   14   19 1
     9   30   36 1
    10   20   26 1
    11   15   20 1
    12   29   35 2
    13   35   39 1
    14   26   32 1
    15   14   18 2
    16   16   18 1
    17   21   29 1
    18   34   39 2
    19   11   14 1
    20   16   21 1
    21   21   28 2
    22   28   34 1
    23   12   16 2
    24   11   15 1
    25    8   11 2
    26    1    4 2
    27    8   12 1
    28   36   40 1
    29   36   41 2
    30    3    8 1
    31   32   38 1
    32   40   42 1
    33   44   48 1
    34    1    3 1
    35    1    5 2
    36    1    2 1
    37   42   44 2
    38   42   43 1
    39   44   47 1
    40    2    7 2
    41    7   10 1
    42    2    6 1
    43   43   46 1
    44   10   13 2
    45   43   45 2
    46   47   49 2
    47    6    9 2
    48    9   13 1
    49   13   17 1
    50   17   23 1
    51   45   49 1
    52   17   22 1
    53   17   24 1
    54    3   50 1
    55    6   51 1
    56    7   52 1
    57    9   53 1
    58   10   54 1
    59   22   55 1
    60   22   56 1
    61   22   57 1
    62   23   58 1
    63   23   59 1
    64   23   60 1
    65   24   61 1
    66   24   62 1
    67   24   63 1
    68   25   64 1
    69   25   65 1
    70   27   66 1
    71   30   67 1
    72   30   68 1
    73   31   69 1
    74   33   70 1
    75   34   71 1
    76   35   72 1
    77   37   73 1
    78   38   74 1
    79   38   75 1
    80   38   76 1
    81   39   77 1
    82   40   78 1
    83   45   79 1
    84   46   80 1
    85   46   81 1
    86   46   82 1
    87   47   83 1
    88   48   84 1
    89   48   85 1
    90   48   86 1
    91   49   87 1
@<TRIPOS>SUBSTRUCTURE
     1 K871        1 RESIDUE           4 A     K87     0 ROOT
