# created with PyMOL 2.3.5
@<TRIPOS>MOLECULE
1PE
38 37 1                 
SMALL
USER_CHARGES
@<TRIPOS>ATOM
1	 OH2	-0.358	-1.024	6.347	O.3	1	1PE0	0.000	
2	 C12	-1.523	-0.910	5.529	C.3	1	1PE0	0.000	
3	 C22	-1.447	0.378	4.709	C.3	1	1PE0	0.000	
4	 OH3	-0.284	0.347	3.879	O.3	1	1PE0	0.000	
5	 C13	0.957	1.603	2.229	C.3	1	1PE0	0.000	
6	 C23	-0.269	1.572	3.143	C.3	1	1PE0	0.000	
7	 OH4	0.903	0.501	1.321	O.3	1	1PE0	0.000	
8	 C14	2.073	-0.572	-0.500	C.3	1	1PE0	0.000	
9	 C24	2.069	0.585	0.500	C.3	1	1PE0	0.000	
10	 OH5	0.906	-0.495	-1.321	O.3	1	1PE0	0.000	
11	 C15	-0.260	-1.573	-3.143	C.3	1	1PE0	0.000	
12	 C25	0.967	-1.597	-2.229	C.3	1	1PE0	0.000	
13	 OH6	-0.282	-0.349	-3.879	O.3	1	1PE0	0.000	
14	 C16	-1.529	0.901	-5.529	C.3	1	1PE0	0.000	
15	 C26	-1.445	-0.387	-4.709	C.3	1	1PE0	0.000	
16	 OH7	-0.364	1.022	-6.347	O.3	1	1PE0	0.000	
17	 HO2	-0.445	-1.848	6.846	 H	1	1PE0	0.000	
18	H121	-1.580	-1.766	4.856	 H	1	1PE0	0.000	
19	H122	-2.411	-0.887	6.162	 H	1	1PE0	0.000	
20	H221	-2.337	0.465	4.085	 H	1	1PE0	0.000	
21	H222	-1.391	1.234	5.382	 H	1	1PE0	0.000	
22	H131	0.968	2.537	1.667	 H	1	1PE0	0.000	
23	H132	1.861	1.531	2.834	 H	1	1PE0	0.000	
24	H231	-1.174	1.643	2.538	 H	1	1PE0	0.000	
25	H232	-0.228	2.412	3.835	 H	1	1PE0	0.000	
26	H141	2.963	-0.508	-1.126	 H	1	1PE0	0.000	
27	H142	2.076	-1.519	0.039	 H	1	1PE0	0.000	
28	H241	2.066	1.532	-0.039	 H	1	1PE0	0.000	
29	H242	2.959	0.526	1.126	 H	1	1PE0	0.000	
30	H151	-0.213	-2.413	-3.835	 H	1	1PE0	0.000	
31	H152	-1.163	-1.650	-2.538	 H	1	1PE0	0.000	
32	H251	1.871	-1.519	-2.834	 H	1	1PE0	0.000	
33	H252	0.984	-2.530	-1.667	 H	1	1PE0	0.000	
34	H161	-2.416	0.871	-6.162	 H	1	1PE0	0.000	
35	H162	-1.591	1.756	-4.856	 H	1	1PE0	0.000	
36	H261	-1.383	-1.243	-5.382	 H	1	1PE0	0.000	
37	H262	-2.334	-0.480	-4.085	 H	1	1PE0	0.000	
38	 HO7	-0.457	1.845	-6.846	 H	1	1PE0	0.000	
@<TRIPOS>BOND
1 1 2 1
2 1 17 1
3 2 3 1
4 2 18 1
5 2 19 1
6 3 4 1
7 3 20 1
8 3 21 1
9 4 6 1
10 5 6 1
11 5 7 1
12 5 22 1
13 5 23 1
14 6 24 1
15 6 25 1
16 7 9 1
17 8 9 1
18 8 10 1
19 8 26 1
20 8 27 1
21 9 28 1
22 9 29 1
23 10 12 1
24 11 12 1
25 11 13 1
26 11 30 1
27 11 31 1
28 12 32 1
29 12 33 1
30 13 15 1
31 14 15 1
32 14 16 1
33 14 34 1
34 14 35 1
35 15 36 1
36 15 37 1
37 16 38 1
@<TRIPOS>SUBSTRUCTURE
1	1PE0	1	GROUP	1 ****	1PE
