# created with PyMOL 2.3.5
@<TRIPOS>MOLECULE
9DZ
36 36 1                 
SMALL
USER_CHARGES
@<TRIPOS>ATOM
1	 C91	3.186	-0.007	-0.599	C.3	1	9DZ0	0.000	
2	 C92	2.191	0.128	0.556	C.3	1	9DZ0	0.000	
3	 C93	0.764	0.053	0.010	C.3	1	9DZ0	0.000	
4	 C94	-0.231	0.188	1.164	C.3	1	9DZ0	0.000	
5	 C95	-1.637	0.114	0.627	C.2	1	9DZ0	0.000	
6	 C96	-2.275	-1.109	0.526	C.2	1	9DZ0	0.000	
7	 C97	-3.564	-1.177	0.032	C.2	1	9DZ0	0.000	
8	 C98	-4.216	-0.023	-0.359	C.2	1	9DZ0	0.000	
9	 C99	-3.579	1.200	-0.257	C.2	1	9DZ0	0.000	
10	 CA0	-2.292	1.268	0.241	C.2	1	9DZ0	0.000	
11	 CA1	-4.290	2.458	-0.685	C.3	1	9DZ0	0.000	
12	 CA2	-4.259	-2.510	-0.079	C.3	1	9DZ0	0.000	
13	 CA3	4.587	0.190	-0.080	C.2	1	9DZ0	0.000	
14	 N90	3.068	-1.345	-1.193	N.3	1	9DZ0	0.000	
15	 NA5	5.057	1.435	0.135	N.pl3	1	9DZ0	0.000	
16	 OA4	5.292	-0.772	0.144	O.2	1	9DZ0	0.000	
17	  H1	2.970	0.747	-1.355	 H	1	9DZ0	0.000	
18	  H2	2.351	-0.680	1.269	 H	1	9DZ0	0.000	
19	  H3	2.340	1.087	1.053	 H	1	9DZ0	0.000	
20	  H4	0.604	0.861	-0.704	 H	1	9DZ0	0.000	
21	  H5	0.615	-0.906	-0.488	 H	1	9DZ0	0.000	
22	  H6	-0.072	-0.620	1.878	 H	1	9DZ0	0.000	
23	  H7	-0.083	1.146	1.662	 H	1	9DZ0	0.000	
24	  H8	-1.765	-2.010	0.832	 H	1	9DZ0	0.000	
25	  H9	-5.224	-0.076	-0.746	 H	1	9DZ0	0.000	
26	 H10	-1.794	2.224	0.320	 H	1	9DZ0	0.000	
27	 H11	-4.832	2.875	0.163	 H	1	9DZ0	0.000	
28	 H12	-3.560	3.184	-1.042	 H	1	9DZ0	0.000	
29	 H13	-4.992	2.224	-1.485	 H	1	9DZ0	0.000	
30	 H14	-4.797	-2.717	0.846	 H	1	9DZ0	0.000	
31	 H15	-4.963	-2.484	-0.910	 H	1	9DZ0	0.000	
32	 H16	-3.520	-3.292	-0.252	 H	1	9DZ0	0.000	
33	 H17	3.264	-2.062	-0.511	 H	1	9DZ0	0.000	
34	 H18	2.156	-1.478	-1.606	 H	1	9DZ0	0.000	
35	 H20	4.494	2.204	-0.044	 H	1	9DZ0	0.000	
36	 H21	5.959	1.561	0.469	 H	1	9DZ0	0.000	
@<TRIPOS>BOND
1 7 12 1
2 7 8 2
3 8 9 1
4 6 7 1
5 9 11 1
6 9 10 2
7 5 6 2
8 5 10 1
9 4 5 1
10 3 4 1
11 2 3 1
12 13 16 2
13 1 2 1
14 13 15 1
15 1 13 1
16 1 14 1
17 1 17 1
18 2 18 1
19 2 19 1
20 3 20 1
21 3 21 1
22 4 22 1
23 4 23 1
24 6 24 1
25 8 25 1
26 10 26 1
27 11 27 1
28 11 28 1
29 11 29 1
30 12 30 1
31 12 31 1
32 12 32 1
33 14 33 1
34 14 34 1
35 15 35 1
36 15 36 1
@<TRIPOS>SUBSTRUCTURE
1	9DZ0	1	GROUP	1 ****	9DZ
