# created with PyMOL 2.3.5
@<TRIPOS>MOLECULE
EN6
56 59 1 0 0
SMALL
USER_CHARGES


@<TRIPOS>ATOM
      1 N1         -2.2160   -1.5120    0.4150 N.pl3     1 EN61        0.0000
      2 N3         -4.5350    2.2660    0.0460 N.pl3     1 EN61        0.0000
      3 C4          0.3270   -4.3700   -1.2600 C.2       1 EN61        0.0000
      4 C5          0.8700   -3.3870   -0.4030 C.2       1 EN61        0.0000
      5 C6          0.0170   -2.4330    0.1540 C.2       1 EN61        0.0000
      6 C7          2.2490   -3.1920    0.0170 C.2       1 EN61        0.0000
      7 C8          2.4410   -2.1730    0.8310 C.2       1 EN61        0.0000
      8 C10         4.4500   -0.7980    0.4680 C.2       1 EN61        0.0000
      9 C13         5.6660    1.0020   -1.2420 C.2       1 EN61        0.0000
     10 C15         4.2420    0.5590    0.6310 C.2       1 EN61        0.0000
     11 C17        -3.1300   -0.7900   -0.2570 C.2       1 EN61        0.0000
     12 C20        -3.5630    0.4300    3.2200 C.3       1 EN61        0.0000
     13 C21        -3.4120   -0.8620   -1.7360 C.3       1 EN61        0.0000
     14 C22        -4.8400    0.9930    0.3700 C.2       1 EN61        0.0000
     15 C24        -4.9930    4.5860   -0.5770 C.3       1 EN61        0.0000
     16 C1         -1.3540   -2.4670   -0.1420 C.2       1 EN61        0.0000
     17 C2         -1.8560   -3.4410   -0.9830 C.2       1 EN61        0.0000
     18 C3         -1.0050   -4.3840   -1.5410 C.2       1 EN61        0.0000
     19 S1          0.9400   -1.3350    1.1730 S.3       1 EN61        0.0000
     20 C9          3.7820   -1.7790    1.3960 C.3       1 EN61        0.0000
     21 C11         5.2660   -1.2550   -0.5500 C.2       1 EN61        0.0000
     22 C12         5.8740   -0.3550   -1.4050 C.2       1 EN61        0.0000
     23 C14         4.8500    1.4590   -0.2240 C.2       1 EN61        0.0000
     24 C16         4.6220    2.9380   -0.0470 C.3       1 EN61        0.0000
     25 F1          3.3510    3.1530    0.4970 F         1 EN61        0.0000
     26 F2          5.5930    3.4600    0.8150 F         1 EN61        0.0000
     27 F3          4.7110    3.5760   -1.2900 F         1 EN61        0.0000
     28 C18        -3.7630    0.0280    0.6580 C.2       1 EN61        0.0000
     29 C19        -3.1860   -0.2330    1.9210 C.2       1 EN61        0.0000
     30 N2         -2.2650   -1.1440    1.7650 N.2       1 EN61        0.0000
     31 O1         -4.5090   -1.7480   -1.9690 O.3       1 EN61        0.0000
     32 O2         -6.0030    0.6410    0.4250 O.2       1 EN61        0.0000
     33 C23        -5.6050    3.2250   -0.2400 C.3       1 EN61        0.0000
     34 O3         -4.2430    4.4840   -1.7890 O.3       1 EN61        0.0000
     35 H1         -3.6080    2.5460    0.0020 H         1 EN61        0.0000
     36 H2          0.9750   -5.1140   -1.6990 H         1 EN61        0.0000
     37 H3          3.0530   -3.8330   -0.3120 H         1 EN61        0.0000
     38 H4          6.1410    1.7050   -1.9100 H         1 EN61        0.0000
     39 H5          3.6030    0.9160    1.4260 H         1 EN61        0.0000
     40 H6         -4.3560   -0.1410    3.7030 H         1 EN61        0.0000
     41 H7         -2.6930    0.4680    3.8750 H         1 EN61        0.0000
     42 H8         -3.9140    1.4430    3.0230 H         1 EN61        0.0000
     43 H9         -3.6630    0.1320   -2.1060 H         1 EN61        0.0000
     44 H10        -2.5290   -1.2320   -2.2570 H         1 EN61        0.0000
     45 H11        -5.7880    5.3210   -0.7030 H         1 EN61        0.0000
     46 H12        -4.3340    4.8990    0.2330 H         1 EN61        0.0000
     47 H13        -2.9110   -3.4630   -1.2140 H         1 EN61        0.0000
     48 H14        -1.4050   -5.1430   -2.1980 H         1 EN61        0.0000
     49 H15         3.6420   -1.3180    2.3740 H         1 EN61        0.0000
     50 H16         4.4070   -2.6660    1.4990 H         1 EN61        0.0000
     51 H17         5.4290   -2.3150   -0.6770 H         1 EN61        0.0000
     52 H18         6.5120   -0.7120   -2.2000 H         1 EN61        0.0000
     53 H19        -4.7470   -1.8420   -2.9020 H         1 EN61        0.0000
     54 H20        -6.1940    2.8710   -1.0860 H         1 EN61        0.0000
     55 H21        -6.2490    3.3220    0.6350 H         1 EN61        0.0000
     56 H22        -3.8260    5.3110   -2.0650 H         1 EN61        0.0000
@<TRIPOS>BOND
     1   15   33 1
     2    2   33 1
     3   15   34 1
     4    2   14 1
     5   13   31 1
     6   11   13 1
     7   14   32 2
     8   14   28 1
     9   11   28 2
    10    1   11 1
    11   17   18 2
    12   16   17 1
    13    3   18 1
    14   28   29 1
    15    1   16 1
    16    1   30 1
    17    5   16 2
    18    3    4 2
    19   29   30 2
    20   12   29 1
    21    4    5 1
    22    5   19 1
    23    4    6 1
    24    6    7 2
    25    7   19 1
    26    7   20 1
    27    8   20 1
    28    8   10 2
    29    8   21 1
    30   10   23 1
    31   21   22 2
    32   24   25 1
    33   23   24 1
    34    9   23 2
    35    9   22 1
    36   24   26 1
    37   24   27 1
    38    2   35 1
    39    3   36 1
    40    6   37 1
    41    9   38 1
    42   10   39 1
    43   12   40 1
    44   12   41 1
    45   12   42 1
    46   13   43 1
    47   13   44 1
    48   15   45 1
    49   15   46 1
    50   17   47 1
    51   18   48 1
    52   20   49 1
    53   20   50 1
    54   21   51 1
    55   22   52 1
    56   31   53 1
    57   33   54 1
    58   33   55 1
    59   34   56 1
@<TRIPOS>SUBSTRUCTURE
     1 EN61        1 RESIDUE           4 A     EN6     0 ROOT
