# created with PyMOL 2.3.5
@<TRIPOS>MOLECULE
P33
52 51 1                 
SMALL
USER_CHARGES
@<TRIPOS>ATOM
1	 O22	0.019	-0.709	8.993	O.3	1	P330	0.000	
2	 C21	-1.203	-0.618	8.259	C.3	1	P330	0.000	
3	 C20	-1.156	0.604	7.340	C.3	1	P330	0.000	
4	 O19	-0.063	0.473	6.429	O.3	1	P330	0.000	
5	 C18	-0.072	1.638	5.602	C.3	1	P330	0.000	
6	 C17	1.079	1.561	4.598	C.3	1	P330	0.000	
7	 O16	0.924	0.398	3.783	O.3	1	P330	0.000	
8	 C15	2.024	0.382	2.872	C.3	1	P330	0.000	
9	 C14	1.918	-0.845	1.965	C.3	1	P330	0.000	
10	 O13	0.692	-0.790	1.232	O.3	1	P330	0.000	
11	 C12	0.652	-1.957	0.408	C.3	1	P330	0.000	
12	 C11	-0.641	-1.961	-0.408	C.3	1	P330	0.000	
13	 O10	-0.688	-0.794	-1.232	O.3	1	P330	0.000	
14	  C9	-1.913	-0.855	-1.965	C.3	1	P330	0.000	
15	  C8	-2.026	0.371	-2.872	C.3	1	P330	0.000	
16	  O7	-0.926	0.393	-3.783	O.3	1	P330	0.000	
17	  C6	-1.087	1.555	-4.598	C.3	1	P330	0.000	
18	  C5	0.064	1.639	-5.602	C.3	1	P330	0.000	
19	  O4	0.060	0.473	-6.429	O.3	1	P330	0.000	
20	  C3	1.153	0.610	-7.340	C.3	1	P330	0.000	
21	  C2	1.206	-0.611	-8.259	C.3	1	P330	0.000	
22	  O1	-0.016	-0.709	-8.993	O.3	1	P330	0.000	
23	 H22	-0.051	-1.491	9.558	 H	1	P330	0.000	
24	H211	-2.037	-0.518	8.954	 H	1	P330	0.000	
25	H212	-1.335	-1.518	7.660	 H	1	P330	0.000	
26	H201	-1.023	1.504	7.939	 H	1	P330	0.000	
27	H202	-2.089	0.673	6.780	 H	1	P330	0.000	
28	H181	0.045	2.526	6.224	 H	1	P330	0.000	
29	H182	-1.019	1.695	5.065	 H	1	P330	0.000	
30	H171	2.026	1.504	5.136	 H	1	P330	0.000	
31	H172	1.072	2.450	3.968	 H	1	P330	0.000	
32	H151	2.959	0.340	3.431	 H	1	P330	0.000	
33	H152	2.005	1.286	2.263	 H	1	P330	0.000	
34	H141	1.937	-1.749	2.573	 H	1	P330	0.000	
35	H142	2.757	-0.857	1.270	 H	1	P330	0.000	
36	H121	0.687	-2.847	1.036	 H	1	P330	0.000	
37	H122	1.507	-1.955	-0.267	 H	1	P330	0.000	
38	H111	-1.497	-1.963	0.267	 H	1	P330	0.000	
39	H112	-0.672	-2.851	-1.036	 H	1	P330	0.000	
40	 H91	-2.752	-0.871	-1.270	 H	1	P330	0.000	
41	 H92	-1.928	-1.759	-2.573	 H	1	P330	0.000	
42	 H81	-2.011	1.276	-2.263	 H	1	P330	0.000	
43	 H82	-2.960	0.325	-3.431	 H	1	P330	0.000	
44	 H61	-1.085	2.444	-3.968	 H	1	P330	0.000	
45	 H62	-2.034	1.494	-5.136	 H	1	P330	0.000	
46	 H51	1.010	1.700	-5.065	 H	1	P330	0.000	
47	 H52	-0.059	2.525	-6.224	 H	1	P330	0.000	
48	 H31	2.085	0.684	-6.780	 H	1	P330	0.000	
49	 H32	1.015	1.510	-7.939	 H	1	P330	0.000	
50	 H21	1.343	-1.511	-7.660	 H	1	P330	0.000	
51	H22A	2.039	-0.507	-8.954	 H	1	P330	0.000	
52	 HO1	0.059	-1.490	-9.558	 H	1	P330	0.000	
@<TRIPOS>BOND
1 1 2 1
2 1 23 1
3 2 3 1
4 2 24 1
5 2 25 1
6 3 4 1
7 3 26 1
8 3 27 1
9 4 5 1
10 5 6 1
11 5 28 1
12 5 29 1
13 6 7 1
14 6 30 1
15 6 31 1
16 7 8 1
17 8 9 1
18 8 32 1
19 8 33 1
20 9 10 1
21 9 34 1
22 9 35 1
23 10 11 1
24 11 12 1
25 11 36 1
26 11 37 1
27 12 13 1
28 12 38 1
29 12 39 1
30 13 14 1
31 14 15 1
32 14 40 1
33 14 41 1
34 15 16 1
35 15 42 1
36 15 43 1
37 16 17 1
38 17 18 1
39 17 44 1
40 17 45 1
41 18 19 1
42 18 46 1
43 18 47 1
44 19 20 1
45 20 21 1
46 20 48 1
47 20 49 1
48 21 22 1
49 21 50 1
50 21 51 1
51 22 52 1
@<TRIPOS>SUBSTRUCTURE
1	P330	1	GROUP	1 ****	P33
