# created with PyMOL 2.3.5
@<TRIPOS>MOLECULE
GLY
10 9 1 0 0
SMALL
USER_CHARGES


@<TRIPOS>ATOM
      1 N           1.9310    0.0900   -0.0340 N.3       1 GLY1        0.0000
      2 CA          0.7610   -0.7990   -0.0080 C.3       1 GLY1        0.0000
      3 C          -0.4980    0.0290   -0.0050 C.2       1 GLY1        0.0000
      4 O          -0.4290    1.2350   -0.0230 O.co2     1 GLY1        0.0000
      5 OXT        -1.6970   -0.5740    0.0180 O.3       1 GLY1        0.0000
      6 HA2         0.7928   -1.4152    0.8905 H         1 GLY1        0.0000
      7 HA3         0.7722   -1.4404   -0.8892 H         1 GLY1        0.0000
      8 H1          2.7755   -0.4641   -0.0360 H         1 GLY1        0.0000
      9 H2          1.9013    0.6610   -0.8666 H         1 GLY1        0.0000
     10 H3          1.9203    0.6845    0.7825 H         1 GLY1        0.0000
@<TRIPOS>BOND
     1    1    2 1
     2    2    3 1
     3    3    4 2
     4    3    5 1
     5    6    2 1
     6    7    2 1
     7    8    1 1
     8    9    1 1
     9   10    1 1
@<TRIPOS>SUBSTRUCTURE
     1 GLY1        2 RESIDUE           4 A     GLY     0 ROOT
