# created with PyMOL 2.3.5
@<TRIPOS>MOLECULE
OLC
65 64 1                 
SMALL
USER_CHARGES
@<TRIPOS>ATOM
1	 C18	12.196	-3.548	-0.309	C.3	1	OLC0	0.000	
2	 C10	4.742	3.047	0.356	C.2	1	OLC0	0.000	
3	  C9	3.646	3.285	-0.321	C.2	1	OLC0	0.000	
4	 C17	10.752	-3.335	0.149	C.3	1	OLC0	0.000	
5	 C11	5.157	1.628	0.644	C.3	1	OLC0	0.000	
6	  C8	2.713	2.153	-0.665	C.3	1	OLC0	0.000	
7	 C24	-10.465	-1.119	0.666	C.3	1	OLC0	0.000	
8	 C16	10.331	-1.894	-0.144	C.3	1	OLC0	0.000	
9	 C12	6.601	1.415	0.186	C.3	1	OLC0	0.000	
10	  C7	1.296	2.502	-0.204	C.3	1	OLC0	0.000	
11	 C15	8.887	-1.681	0.314	C.3	1	OLC0	0.000	
12	 C13	7.022	-0.027	0.479	C.3	1	OLC0	0.000	
13	  C6	0.349	1.352	-0.553	C.3	1	OLC0	0.000	
14	 C14	8.466	-0.239	0.021	C.3	1	OLC0	0.000	
15	  C5	-1.068	1.701	-0.092	C.3	1	OLC0	0.000	
16	  C4	-2.016	0.552	-0.442	C.3	1	OLC0	0.000	
17	  C3	-3.432	0.901	0.020	C.3	1	OLC0	0.000	
18	  C2	-4.380	-0.249	-0.330	C.3	1	OLC0	0.000	
19	 C21	-8.097	-0.374	0.385	C.3	1	OLC0	0.000	
20	  C1	-5.775	0.095	0.124	C.2	1	OLC0	0.000	
21	 C22	-9.104	-1.482	0.068	C.3	1	OLC0	0.000	
22	 O19	-5.990	1.151	0.671	O.co2	1	OLC0	0.000	
23	 O25	-11.375	-2.204	0.471	O.3	1	OLC0	0.000	
24	 O23	-9.228	-1.622	-1.349	O.3	1	OLC0	0.000	
25	 O20	-6.780	-0.772	-0.079	O.3	1	OLC0	0.000	
26	 H18	12.852	-2.862	0.227	 H	1	OLC0	0.000	
27	H18A	12.496	-4.575	-0.100	 H	1	OLC0	0.000	
28	H18B	12.269	-3.359	-1.380	 H	1	OLC0	0.000	
29	 H10	5.348	3.869	0.707	 H	1	OLC0	0.000	
30	  H9	3.411	4.292	-0.633	 H	1	OLC0	0.000	
31	 H17	10.096	-4.021	-0.387	 H	1	OLC0	0.000	
32	H17A	10.679	-3.524	1.220	 H	1	OLC0	0.000	
33	 H11	5.084	1.438	1.715	 H	1	OLC0	0.000	
34	H11A	4.501	0.942	0.109	 H	1	OLC0	0.000	
35	  H8	2.715	1.995	-1.744	 H	1	OLC0	0.000	
36	 H8A	3.044	1.243	-0.164	 H	1	OLC0	0.000	
37	 H24	-10.354	-0.925	1.733	 H	1	OLC0	0.000	
38	H24A	-10.853	-0.227	0.173	 H	1	OLC0	0.000	
39	 H16	10.987	-1.207	0.392	 H	1	OLC0	0.000	
40	H16A	10.404	-1.704	-1.215	 H	1	OLC0	0.000	
41	 H12	6.674	1.604	-0.885	 H	1	OLC0	0.000	
42	H12A	7.257	2.101	0.722	 H	1	OLC0	0.000	
43	  H7	1.294	2.660	0.874	 H	1	OLC0	0.000	
44	 H7A	0.965	3.411	-0.705	 H	1	OLC0	0.000	
45	 H15	8.231	-2.367	-0.222	 H	1	OLC0	0.000	
46	H15A	8.814	-1.870	1.385	 H	1	OLC0	0.000	
47	 H13	6.949	-0.216	1.550	 H	1	OLC0	0.000	
48	H13A	6.366	-0.713	-0.056	 H	1	OLC0	0.000	
49	  H6	0.351	1.194	-1.632	 H	1	OLC0	0.000	
50	 H6A	0.680	0.443	-0.052	 H	1	OLC0	0.000	
51	 H14	9.122	0.447	0.557	 H	1	OLC0	0.000	
52	H14A	8.539	-0.050	-1.050	 H	1	OLC0	0.000	
53	  H5	-1.071	1.859	0.986	 H	1	OLC0	0.000	
54	 H5A	-1.400	2.611	-0.593	 H	1	OLC0	0.000	
55	  H4	-2.013	0.394	-1.520	 H	1	OLC0	0.000	
56	 H4A	-1.684	-0.357	0.060	 H	1	OLC0	0.000	
57	  H3	-3.435	1.059	1.098	 H	1	OLC0	0.000	
58	 H3A	-3.764	1.810	-0.482	 H	1	OLC0	0.000	
59	  H2	-4.377	-0.406	-1.408	 H	1	OLC0	0.000	
60	 H2A	-4.048	-1.158	0.171	 H	1	OLC0	0.000	
61	 H21	-8.397	0.545	-0.118	 H	1	OLC0	0.000	
62	H21A	-8.068	-0.207	1.462	 H	1	OLC0	0.000	
63	 H22	-8.758	-2.422	0.497	 H	1	OLC0	0.000	
64	HO25	-12.260	-2.043	0.826	 H	1	OLC0	0.000	
65	HO23	-9.533	-0.821	-1.798	 H	1	OLC0	0.000	
@<TRIPOS>BOND
1 1 4 1
2 2 3 2
3 2 5 1
4 3 6 1
5 4 8 1
6 5 9 1
7 6 10 1
8 7 21 1
9 7 23 1
10 8 11 1
11 9 12 1
12 10 13 1
13 11 14 1
14 12 14 1
15 13 15 1
16 15 16 1
17 16 17 1
18 17 18 1
19 18 20 1
20 19 21 1
21 19 25 1
22 20 22 2
23 20 25 1
24 21 24 1
25 1 26 1
26 1 27 1
27 1 28 1
28 2 29 1
29 3 30 1
30 4 31 1
31 4 32 1
32 5 33 1
33 5 34 1
34 6 35 1
35 6 36 1
36 7 37 1
37 7 38 1
38 8 39 1
39 8 40 1
40 9 41 1
41 9 42 1
42 10 43 1
43 10 44 1
44 11 45 1
45 11 46 1
46 12 47 1
47 12 48 1
48 13 49 1
49 13 50 1
50 14 51 1
51 14 52 1
52 15 53 1
53 15 54 1
54 16 55 1
55 16 56 1
56 17 57 1
57 17 58 1
58 18 59 1
59 18 60 1
60 19 61 1
61 19 62 1
62 21 63 1
63 23 64 1
64 24 65 1
@<TRIPOS>SUBSTRUCTURE
1	OLC0	1	GROUP	1 ****	OLC
