@<TRIPOS>MOLECULE
SK9
22 24 1 0 0
SMALL
NO_CHARGES


@<TRIPOS>ATOM
      1 C01        99.1330   86.1680  119.3540 C.ar      1 SK9451      0.0000
      2 C02        98.9140   87.1250  118.3850 C.ar      1 SK9451      0.0000
      3 C03       100.3810   85.5920  119.5000 C.ar      1 SK9451      0.0000
      4 C04        99.9560   87.4940  117.5660 C.ar      1 SK9451      0.0000
      5 C05       101.4500   85.9480  118.6790 C.ar      1 SK9451      0.0000
      6 C06       101.2000   86.9220  117.7060 C.ar      1 SK9451      0.0000
      7 C07       102.8580   85.2940  118.8410 C.3       1 SK9451      0.0000
      8 C08       102.2420   87.4390  116.7330 C.3       1 SK9451      0.0000
      9 C09       103.3740   84.8030  117.4930 C.3       1 SK9451      0.0000
     10 C10       102.7180   86.3460  115.8080 C.3       1 SK9451      0.0000
     11 C11       102.8770   84.1510  119.8760 C.ar      1 SK9451      0.0000
     12 C12       103.3360   84.5040  121.1360 C.ar      1 SK9451      0.0000
     13 C13       102.4930   82.8270  119.6390 C.ar      1 SK9451      0.0000
     14 C14       103.4090   83.5780  122.1610 C.ar      1 SK9451      0.0000
     15 C15       103.0220   82.2740  121.9220 C.ar      1 SK9451      0.0000
     16 C16       102.5640   81.8990  120.6720 C.ar      1 SK9451      0.0000
     17 C17       102.1500   80.4690  120.4530 C.3       1 SK9451      0.0000
     18 C18       104.4880   84.9450  115.4410 C.3       1 SK9451      0.0000
     19 N01       103.7930   85.6660  116.4320 N.4       1 SK9451      0.0000
     20 O01        98.1170   85.7900  120.1700 O.3       1 SK9451      0.0000
     21 O02        97.6960   87.6970  118.2340 O.3       1 SK9451      0.0000
     22 CL01       99.7220   88.6770  116.3480 C.3       1 SK9451      0.0000
@<TRIPOS>BOND
     1    1    2 ar
     2    1    3 ar
     3    1   20 1
     4    2    4 ar
     5    2   21 1
     6    3    5 ar
     7    4    6 ar
     8    4   22 1
     9    5    6 ar
    10    5    7 1
    11    6    8 1
    12    7    9 1
    13    7   11 1
    14    8   10 1
    15    9   19 1
    16   10   19 1
    17   11   12 ar
    18   11   13 ar
    19   12   14 ar
    20   13   16 ar
    21   14   15 ar
    22   15   16 ar
    23   16   17 1
    24   18   19 1
@<TRIPOS>SUBSTRUCTURE
     1 SK9451      1 RESIDUE           4 R     SK9     0 ROOT
