@<TRIPOS>MOLECULE
UN4
36 38 1 0 0
SMALL
NO_CHARGES


@<TRIPOS>ATOM
      1 C1         96.7980  106.2060   94.5700 C.3       1 UN4900      0.0000
      2 N1         95.5550  106.6810   93.9280 N.4       1 UN4900      0.0000
      3 O1        101.2760  107.8510   97.3860 O.3       1 UN4900      0.0000
      4 C2         96.4940  105.3600   95.8110 C.3       1 UN4900      0.0000
      5 N2         99.0880  102.8600   96.6530 N.ar      1 UN4900      0.0000
      6 C3         97.7320  104.5620   96.1600 C.ar      1 UN4900      0.0000
      7 C4         97.8220  103.2040   96.2230 C.ar      1 UN4900      0.0000
      8 C5         99.8150  104.0190   96.8660 C.ar      1 UN4900      0.0000
      9 C6        101.1300  104.1820   97.3290 C.ar      1 UN4900      0.0000
     10 C7        101.6020  105.4740   97.4950 C.ar      1 UN4900      0.0000
     11 C8        100.7620  106.5740   97.1980 C.ar      1 UN4900      0.0000
     12 C9        100.5180  108.9680   97.7030 C.ar      1 UN4900      0.0000
     13 C10       100.8780  110.1890   97.1400 C.ar      1 UN4900      0.0000
     14 C11       100.1320  111.3260   97.4330 C.ar      1 UN4900      0.0000
     15 C12        99.0280  111.2380   98.2800 C.ar      1 UN4900      0.0000
     16 C13        98.6760  110.0130   98.8460 C.ar      1 UN4900      0.0000
     17 C14        99.4260  108.8740   98.5690 C.ar      1 UN4900      0.0000
     18 C15        99.4690  106.3990   96.7230 C.ar      1 UN4900      0.0000
     19 C16        98.9810  105.0920   96.5610 C.ar      1 UN4900      0.0000
     20 H1         95.6890  107.3590   93.2010 H         1 UN4900      0.0000
     21 H2         94.9350  107.0840   94.6500 H         1 UN4900      0.0000
     22 H3         97.3800  105.6080   93.8640 H         1 UN4900      0.0000
     23 H4         97.4070  107.0550   94.8860 H         1 UN4900      0.0000
     24 H5         96.2300  106.0110   96.6460 H         1 UN4900      0.0000
     25 H6         95.6620  104.6920   95.6140 H         1 UN4900      0.0000
     26 H7         97.0950  102.4560   96.0300 H         1 UN4900      0.0000
     27 H8         99.4320  101.8940   96.8310 H         1 UN4900      0.0000
     28 H9        101.7310  103.3380   97.5510 H         1 UN4900      0.0000
     29 H10       102.5830  105.6460   97.8550 H         1 UN4900      0.0000
     30 H11       101.7110  110.2510   96.4880 H         1 UN4900      0.0000
     31 H12       100.4020  112.2600   97.0080 H         1 UN4900      0.0000
     32 H13        98.4550  112.1040   98.4940 H         1 UN4900      0.0000
     33 H14        97.8330  109.9510   99.4870 H         1 UN4900      0.0000
     34 H15        99.1690  107.9450   99.0090 H         1 UN4900      0.0000
     35 H16        98.8560  107.2310   96.5010 H         1 UN4900      0.0000
     36 H17        95.0000  105.8990   93.5880 H         1 UN4900      0.0000
@<TRIPOS>BOND
     1    1    2 1
     2    1    4 1
     3    1   22 1
     4    1   23 1
     5    2   20 1
     6    2   21 1
     7    2   36 1
     8    3   11 1
     9    3   12 1
    10    4    6 1
    11    4   24 1
    12    4   25 1
    13    5    7 ar
    14    5    8 ar
    15    5   27 1
    16    6    7 ar
    17    6   19 ar
    18    7   26 1
    19    8    9 ar
    20    8   19 ar
    21    9   10 ar
    22    9   28 1
    23   10   11 ar
    24   10   29 1
    25   11   18 ar
    26   12   13 ar
    27   12   17 ar
    28   13   14 ar
    29   13   30 1
    30   14   15 ar
    31   14   31 1
    32   15   16 ar
    33   15   32 1
    34   16   17 ar
    35   16   33 1
    36   17   34 1
    37   18   19 ar
    38   18   35 1
@<TRIPOS>SUBSTRUCTURE
     1 UN4900      1 RESIDUE           4 L     UN4     0 ROOT
