@<TRIPOS>MOLECULE
UN4
36 38 1 0 0
SMALL
NO_CHARGES


@<TRIPOS>ATOM
      1 C1         96.7920  106.2160   94.5670 C.3       1 UN4900      0.0000
      2 N1         95.5480  106.6870   93.9220 N.4       1 UN4900      0.0000
      3 O1        101.2780  107.8540   97.3890 O.3       1 UN4900      0.0000
      4 C2         96.4860  105.3760   95.8100 C.3       1 UN4900      0.0000
      5 N2         99.0740  102.8760   96.6370 N.ar      1 UN4900      0.0000
      6 C3         97.7240  104.5790   96.1570 C.ar      1 UN4900      0.0000
      7 C4         97.8100  103.2220   96.2130 C.ar      1 UN4900      0.0000
      8 C5         99.8050  104.0290   96.8580 C.ar      1 UN4900      0.0000
      9 C6        101.1210  104.1860   97.3220 C.ar      1 UN4900      0.0000
     10 C7        101.5970  105.4760   97.4930 C.ar      1 UN4900      0.0000
     11 C8        100.7600  106.5790   97.1980 C.ar      1 UN4900      0.0000
     12 C9        100.5200  108.9710   97.7060 C.ar      1 UN4900      0.0000
     13 C10       100.8790  110.1920   97.1410 C.ar      1 UN4900      0.0000
     14 C11       100.1320  111.3290   97.4340 C.ar      1 UN4900      0.0000
     15 C12        99.0290  111.2410   98.2810 C.ar      1 UN4900      0.0000
     16 C13        98.6770  110.0160   98.8480 C.ar      1 UN4900      0.0000
     17 C14        99.4280  108.8770   98.5720 C.ar      1 UN4900      0.0000
     18 C15        99.4660  106.4100   96.7230 C.ar      1 UN4900      0.0000
     19 C16        98.9750  105.1050   96.5590 C.ar      1 UN4900      0.0000
     20 H1         95.6820  107.3640   93.1950 H         1 UN4900      0.0000
     21 H2         94.9280  107.0900   94.6440 H         1 UN4900      0.0000
     22 H3         97.3740  105.6160   93.8630 H         1 UN4900      0.0000
     23 H4         97.4000  107.0670   94.8800 H         1 UN4900      0.0000
     24 H5         96.2250  106.0290   96.6440 H         1 UN4900      0.0000
     25 H6         95.6540  104.7080   95.6150 H         1 UN4900      0.0000
     26 H7         97.0810  102.4760   96.0170 H         1 UN4900      0.0000
     27 H8         99.4120  101.9110   96.8000 H         1 UN4900      0.0000
     28 H9        101.7230  103.3400   97.5410 H         1 UN4900      0.0000
     29 H10       102.5790  105.6440   97.8530 H         1 UN4900      0.0000
     30 H11       101.7110  110.2540   96.4890 H         1 UN4900      0.0000
     31 H12       100.4020  112.2620   97.0080 H         1 UN4900      0.0000
     32 H13        98.4540  112.1060   98.4940 H         1 UN4900      0.0000
     33 H14        97.8340  109.9540   99.4890 H         1 UN4900      0.0000
     34 H15        99.1710  107.9480   99.0120 H         1 UN4900      0.0000
     35 H16        98.8560  107.2440   96.5020 H         1 UN4900      0.0000
     36 H17        94.9940  105.9040   93.5840 H         1 UN4900      0.0000
@<TRIPOS>BOND
     1    1    2 1
     2    1    4 1
     3    1   22 1
     4    1   23 1
     5    2   20 1
     6    2   21 1
     7    2   36 1
     8    3   11 1
     9    3   12 1
    10    4    6 1
    11    4   24 1
    12    4   25 1
    13    5    7 ar
    14    5    8 ar
    15    5   27 1
    16    6    7 ar
    17    6   19 ar
    18    7   26 1
    19    8    9 ar
    20    8   19 ar
    21    9   10 ar
    22    9   28 1
    23   10   11 ar
    24   10   29 1
    25   11   18 ar
    26   12   13 ar
    27   12   17 ar
    28   13   14 ar
    29   13   30 1
    30   14   15 ar
    31   14   31 1
    32   15   16 ar
    33   15   32 1
    34   16   17 ar
    35   16   33 1
    36   17   34 1
    37   18   19 ar
    38   18   35 1
@<TRIPOS>SUBSTRUCTURE
     1 UN4900      1 RESIDUE           4 L     UN4     0 ROOT
