# created with PyMOL 2.3.5
@<TRIPOS>MOLECULE
DU1
66 69 1                 
SMALL
USER_CHARGES
@<TRIPOS>ATOM
1	  O4	2.394	-3.455	-1.207	O.2	1	DU10	0.000	
2	  C3	3.065	-2.558	-0.735	C.2	1	DU10	0.000	
3	  N1	2.770	-1.282	-1.050	N.pl3	1	DU10	0.000	
4	 C14	3.523	-0.245	-0.524	C.2	1	DU10	0.000	
5	 C22	4.578	-0.547	0.328	C.2	1	DU10	0.000	
6	  N4	5.138	0.661	0.692	N.pl3	1	DU10	0.000	
7	 C15	4.431	1.626	0.072	C.2	1	DU10	0.000	
8	 C16	4.697	3.105	0.187	C.3	1	DU10	0.000	
9	 C21	5.772	3.510	-0.824	C.3	1	DU10	0.000	
10	 C20	6.041	5.012	-0.708	C.3	1	DU10	0.000	
11	 C19	6.524	5.335	0.708	C.3	1	DU10	0.000	
12	 C18	5.449	4.931	1.718	C.3	1	DU10	0.000	
13	 C17	5.179	3.429	1.602	C.3	1	DU10	0.000	
14	  N3	3.479	1.085	-0.644	N.2	1	DU10	0.000	
15	 C23	4.852	-1.898	0.632	C.2	1	DU10	0.000	
16	  O3	5.768	-2.188	1.380	O.2	1	DU10	0.000	
17	   N	4.080	-2.864	0.092	N.pl3	1	DU10	0.000	
18	  C2	4.358	-4.268	0.403	C.3	1	DU10	0.000	
19	  C1	3.567	-4.681	1.646	C.3	1	DU10	0.000	
20	   C	3.857	-6.148	1.971	C.3	1	DU10	0.000	
21	  C4	1.653	-0.991	-1.952	C.3	1	DU10	0.000	
22	  C5	0.371	-0.817	-1.135	C.3	1	DU10	0.000	
23	  C6	-0.796	-0.512	-2.076	C.3	1	DU10	0.000	
24	  N2	-2.024	-0.346	-1.293	N.pl3	1	DU10	0.000	
25	  C7	-3.187	-0.070	-1.916	C.2	1	DU10	0.000	
26	  O2	-3.218	0.041	-3.126	O.2	1	DU10	0.000	
27	  C8	-4.426	0.099	-1.126	C.2	1	DU10	0.000	
28	 C13	-4.392	-0.022	0.264	C.2	1	DU10	0.000	
29	 C12	-5.552	0.137	0.995	C.2	1	DU10	0.000	
30	 C11	-6.746	0.414	0.353	C.2	1	DU10	0.000	
31	   S	-8.222	0.615	1.294	S.O2	1	DU10	0.000	
32	  O1	-8.216	-0.414	2.273	O.2	1	DU10	0.000	
33	   O	-8.306	1.996	1.617	O.2	1	DU10	0.000	
34	 C10	-6.785	0.535	-1.025	C.2	1	DU10	0.000	
35	  C9	-5.632	0.384	-1.767	C.2	1	DU10	0.000	
36	  H1	5.897	0.791	1.283	 H	1	DU10	0.000	
37	  H2	3.779	3.656	-0.019	 H	1	DU10	0.000	
38	  H3	6.690	2.959	-0.618	 H	1	DU10	0.000	
39	  H4	5.428	3.279	-1.832	 H	1	DU10	0.000	
40	  H5	6.807	5.300	-1.428	 H	1	DU10	0.000	
41	  H6	5.123	5.562	-0.914	 H	1	DU10	0.000	
42	  H7	7.442	4.785	0.914	 H	1	DU10	0.000	
43	  H8	6.715	6.405	0.790	 H	1	DU10	0.000	
44	  H9	5.792	5.161	2.726	 H	1	DU10	0.000	
45	 H10	4.531	5.481	1.512	 H	1	DU10	0.000	
46	 H11	4.413	3.140	2.322	 H	1	DU10	0.000	
47	 H12	6.097	2.878	1.808	 H	1	DU10	0.000	
48	 H14	4.063	-4.893	-0.440	 H	1	DU10	0.000	
49	 H15	5.424	-4.394	0.593	 H	1	DU10	0.000	
50	 H16	3.862	-4.057	2.489	 H	1	DU10	0.000	
51	 H17	2.501	-4.556	1.456	 H	1	DU10	0.000	
52	 H18	3.294	-6.442	2.856	 H	1	DU10	0.000	
53	 H19	3.562	-6.772	1.128	 H	1	DU10	0.000	
54	 H20	4.923	-6.274	2.160	 H	1	DU10	0.000	
55	 H21	1.860	-0.074	-2.503	 H	1	DU10	0.000	
56	 H22	1.527	-1.816	-2.653	 H	1	DU10	0.000	
57	 H23	0.164	-1.734	-0.583	 H	1	DU10	0.000	
58	 H24	0.497	0.008	-0.433	 H	1	DU10	0.000	
59	 H25	-0.589	0.405	-2.627	 H	1	DU10	0.000	
60	 H26	-0.922	-1.337	-2.777	 H	1	DU10	0.000	
61	 H27	-1.999	-0.434	-0.328	 H	1	DU10	0.000	
62	 H28	-3.461	-0.239	0.767	 H	1	DU10	0.000	
63	 H29	-5.528	0.044	2.071	 H	1	DU10	0.000	
64	 H32	-7.720	0.752	-1.520	 H	1	DU10	0.000	
65	 H33	-5.663	0.483	-2.842	 H	1	DU10	0.000	
66	  F1	-9.459	0.302	0.312	 F	1	DU10	0.000	
@<TRIPOS>BOND
1 15 16 2
2 19 20 1
3 18 19 1
4 17 18 1
5 15 17 1
6 5 15 1
7 2 17 1
8 12 13 1
9 8 13 1
10 11 12 1
11 5 6 1
12 6 7 1
13 4 5 2
14 1 2 2
15 2 3 1
16 7 8 1
17 7 14 2
18 3 4 1
19 4 14 1
20 8 9 1
21 3 21 1
22 10 11 1
23 9 10 1
24 21 22 1
25 22 23 1
26 23 24 1
27 24 25 1
28 25 26 2
29 25 27 1
30 27 28 2
31 28 29 1
32 27 35 1
33 29 30 2
34 34 35 2
35 30 34 1
36 30 31 1
37 31 32 2
38 31 33 2
39 6 36 1
40 8 37 1
41 9 38 1
42 9 39 1
43 10 40 1
44 10 41 1
45 11 42 1
46 11 43 1
47 12 44 1
48 12 45 1
49 13 46 1
50 13 47 1
51 18 48 1
52 18 49 1
53 19 50 1
54 19 51 1
55 20 52 1
56 20 53 1
57 20 54 1
58 21 55 1
59 21 56 1
60 22 57 1
61 22 58 1
62 23 59 1
63 23 60 1
64 24 61 1
65 28 62 1
66 29 63 1
67 34 64 1
68 35 65 1
69 31 66 1
@<TRIPOS>SUBSTRUCTURE
1	DU10	1	GROUP	1 ****	DU1
