@<TRIPOS>MOLECULE
    SEP
   55    54     0     0     0
SMALL
USER_CHARGES


@<TRIPOS>ATOM
      1 X         108.1240  134.0590  124.0300 N.4        1 SEP      0.000000
      2 X         107.7880  134.3220  122.6370 C.3        1 SEP      0.000000
      3 X         107.9910  133.0740  121.7880 C.2        1 SEP      0.000000
      4 X         108.7890  133.0710  120.8520 O.2        1 SEP      0.000000
      5 X         108.6290  135.4750  122.0890 C.3        1 SEP      0.000000
      6 X         106.7372  134.6070  122.5843 H          1 SEP      0.000000
      7 X         108.4566  136.3684  122.6892 H          1 SEP      0.000000
      8 X         109.6846  135.2069  122.1320 H          1 SEP      0.000000
      9 X         108.3459  135.6717  121.0549 H          1 SEP      0.000000
     10 X         107.5596  133.2956  124.3746 H          1 SEP      0.000000
     11 X         109.1011  133.8132  124.0997 H          1 SEP      0.000000
     12 X         107.9447  134.8859  124.5815 H          1 SEP      0.000000
     13 N         107.2610  132.0160  122.1230 N.am       2 SEP      0.000000
     14 CA        107.3470  130.7610  121.3910 C.3        2 SEP      0.000000
     15 CB        108.6160  130.0040  121.7750 C.3        2 SEP      0.000000
     16 OG        109.7310  130.4890  121.0560 O.3        2 SEP      0.000000
     17 C         106.1330  129.8790  121.6390 C.2        2 SEP      0.000000
     18 O         105.8860  129.4510  122.7640 O.2        2 SEP      0.000000
     19 P         110.2340  129.3200  120.0750 P.3        2 SEP      0.000000
     20 O1P       111.2730  129.9150  119.0030 O.co2      2 SEP      0.000000
     21 O2P       108.9590  128.7040  119.3140 O.co2      2 SEP      0.000000
     22 O3P       110.9550  128.1690  120.9370 O.co2      2 SEP      0.000000
     23 H         106.6286  132.0844  122.9076 H          2 SEP      0.000000
     24 HA        107.3931  130.9884  120.3260 H          2 SEP      0.000000
     25 HB2       108.7975  130.1307  122.8423 H          2 SEP      0.000000
     26 HB3       108.4817  128.9445  121.5571 H          2 SEP      0.000000
     27 Y0        105.3800  129.6040  120.5810 N.am       3 SEP      0.000000
     28 X         104.2420  128.7010  120.6770 C.3        3 SEP      0.000000
     29 X         104.7380  127.2690  120.8090 C.2        3 SEP      0.000000
     30 X         105.9370  127.0330  120.9320 O.2        3 SEP      0.000000
     31 X         103.3300  128.8500  119.4630 C.3        3 SEP      0.000000
     32 X         103.0960  130.5600  118.9330 S.3        3 SEP      0.000000
     33 X         105.6008  130.0295  119.6920 H          3 SEP      0.000000
     34 X         103.6728  128.9545  121.5713 H          3 SEP      0.000000
     35 X         103.7656  128.2903  118.6353 H          3 SEP      0.000000
     36 X         102.3567  128.4212  119.7016 H          3 SEP      0.000000
     37 X         101.9768  130.6535  118.2095 H          3 SEP      0.000000
     38 X         103.8220  126.3110  120.7800 N.am       4 SEP      0.000000
     39 X         104.1910  124.9270  121.0410 C.3        4 SEP      0.000000
     40 X         103.4240  124.4080  122.2350 C.3        4 SEP      0.000000
     41 X         104.3030  123.4820  123.0830 C.3        4 SEP      0.000000
     42 X         102.8690  125.5220  122.9520 O.3        4 SEP      0.000000
     43 X         103.8560  126.2020  124.0340 P.3        4 SEP      0.000000
     44 X         105.2590  126.3140  123.5700 O.co2      4 SEP      0.000000
     45 X         103.3100  127.6930  124.2970 O.co2      4 SEP      0.000000
     46 X         103.7980  125.3940  125.4230 O.co2      4 SEP      0.000000
     47 X         103.9680  124.0120  119.8520 C.2        4 SEP      0.000000
     48 X         103.0860  124.2350  119.0290 O.2        4 SEP      0.000000
     49 X         102.8606  126.5431  120.5752 H          4 SEP      0.000000
     50 X         105.2524  124.9036  121.2880 H          4 SEP      0.000000
     51 X         102.5918  123.8142  121.8570 H          4 SEP      0.000000
     52 X         104.5997  123.1450  119.7272 H          4 SEP      0.000000
     53 X         104.3756  122.5071  122.6009 H          4 SEP      0.000000
     54 X         103.8596  123.3658  124.0720 H          4 SEP      0.000000
     55 X         105.2988  123.9145  123.1798 H          4 SEP      0.000000
@<TRIPOS>BOND
     1    1    2 1
     2    1   10 1
     3    1   11 1
     4    1   12 1
     5    2    3 1
     6    2    5 1
     7    2    6 1
     8    3    4 2
     9    3   13 am
    10    5    7 1
    11    5    8 1
    12    5    9 1
    13   13   14 1
    14   13   23 1
    15   14   15 1
    16   14   17 1
    17   14   24 1
    18   15   16 1
    19   15   25 1
    20   15   26 1
    21   16   19 1
    22   17   18 2
    23   17   27 am
    24   19   20 1
    25   19   21 1
    26   19   22 1
    27   27   28 1
    28   27   33 1
    29   28   29 1
    30   28   31 1
    31   28   34 1
    32   29   30 2
    33   29   38 am
    34   31   32 1
    35   31   35 1
    36   31   36 1
    37   32   37 1
    38   38   39 1
    39   38   49 1
    40   39   40 1
    41   39   47 1
    42   39   50 1
    43   40   41 1
    44   40   42 1
    45   40   51 1
    46   41   53 1
    47   41   54 1
    48   41   55 1
    49   42   43 1
    50   43   44 1
    51   43   45 1
    52   43   46 1
    53   47   48 2
    54   47   52 1
