@<TRIPOS>MOLECULE
    HRG
   96    96     0     0     0
SMALL
USER_CHARGES


@<TRIPOS>ATOM
      1 X          55.9940 -116.8950  211.4100 N.4        1 HRG      0.000000
      2 X          55.9540 -115.9940  212.5570 C.3        1 HRG      0.000000
      3 X          55.0950 -116.5640  213.6780 C.2        1 HRG      0.000000
      4 X          55.4530 -116.4570  214.8570 O.2        1 HRG      0.000000
      5 X          55.4360 -114.6210  212.1270 C.3        1 HRG      0.000000
      6 X          55.4540 -113.5980  213.2190 C.ar       1 HRG      0.000000
      7 X          54.3170 -113.2120  213.8950 N.ar       1 HRG      0.000000
      8 X          56.4710 -112.8780  213.7500 C.ar       1 HRG      0.000000
      9 X          54.6320 -112.2990  214.7970 C.ar       1 HRG      0.000000
     10 X          55.9330 -112.0790  214.7290 N.ar       1 HRG      0.000000
     11 X          56.9701 -115.8736  212.9326 H          1 HRG      0.000000
     12 X          54.4089 -114.7348  211.7802 H          1 HRG      0.000000
     13 X          56.0468 -114.2601  211.2995 H          1 HRG      0.000000
     14 X          57.5099 -112.9236  213.4583 H          1 HRG      0.000000
     15 X          53.9435 -111.8153  215.4741 H          1 HRG      0.000000
     16 X          56.3370 -117.7987  211.7029 H          1 HRG      0.000000
     17 X          56.6085 -116.5144  210.7045 H          1 HRG      0.000000
     18 X          55.0644 -116.9954  211.0281 H          1 HRG      0.000000
     19 X          56.4487 -111.4283  215.3041 H          1 HRG      0.000000
     20 X          53.9620 -117.1680  213.3350 N.am       2 HRG      0.000000
     21 X          53.0870 -117.7730  214.3310 C.3        2 HRG      0.000000
     22 X          53.7350 -119.0180  214.9280 C.2        2 HRG      0.000000
     23 X          53.5470 -119.3210  216.1050 O.2        2 HRG      0.000000
     24 X          51.7300 -118.1230  213.7180 C.3        2 HRG      0.000000
     25 X          50.9540 -116.9210  213.2040 C.3        2 HRG      0.000000
     26 X          50.6590 -115.9070  214.2910 C.2        2 HRG      0.000000
     27 X          51.2430 -114.8240  214.3200 O.2        2 HRG      0.000000
     28 X          49.7450 -116.2520  215.1910 N.am       2 HRG      0.000000
     29 X          53.7010 -117.2087  212.3602 H          2 HRG      0.000000
     30 X          52.9267 -117.0511  215.1318 H          2 HRG      0.000000
     31 X          51.8966 -118.8051  212.8843 H          2 HRG      0.000000
     32 X          51.1276 -118.6318  214.4705 H          2 HRG      0.000000
     33 X          50.0093 -117.2687  212.7860 H          2 HRG      0.000000
     34 X          51.5322 -116.4372  212.4167 H          2 HRG      0.000000
     35 X          49.2888 -117.1510  215.1285 H          2 HRG      0.000000
     36 X          49.5062 -115.6154  215.9378 H          2 HRG      0.000000
     37 N          54.4970 -119.7340  214.1060 N.am       3 HRG      0.000000
     38 CA         55.2140 -120.9130  214.5560 C.3        3 HRG      0.000000
     39 CB         55.8250 -121.6560  213.3740 C.3        3 HRG      0.000000
     40 CG         55.6830 -123.5910  211.8150 C.3        3 HRG      0.000000
     41 CG'        55.0900 -122.9550  213.0670 C.3        3 HRG      0.000000
     42 CD         55.1560 -125.0010  211.5840 C.3        3 HRG      0.000000
     43 NE         55.7100 -125.5750  210.3730 N.pl3      3 HRG      0.000000
     44 CZ         55.5830 -126.8670  210.0890 C.2        3 HRG      0.000000
     45 NH1        55.5550 -127.2480  208.8880 N.pl3      3 HRG      0.000000
     46 NH2        55.4920 -127.7580  211.0750 N.pl3      3 HRG      0.000000
     47 C          56.2930 -120.5220  215.5230 C.2        3 HRG      0.000000
     48 O          56.5220 -121.2390  216.5210 O.2        3 HRG      0.000000
     49 H          54.5791 -119.4490  213.1405 H          3 HRG      0.000000
     50 HA         54.5134 -121.5768  215.0626 H          3 HRG      0.000000
     51 HB2        56.8648 -121.8875  213.6049 H          3 HRG      0.000000
     52 HB3        55.7914 -121.0128  212.4947 H          3 HRG      0.000000
     53 HG2        56.7668 -123.6343  211.9226 H          3 HRG      0.000000
     54 HG3        55.4359 -122.9734  210.9515 H          3 HRG      0.000000
     55 HG'        55.1969 -123.6402  213.9079 H          3 HRG      0.000000
     56 HG''       54.0333 -122.7444  212.9020 H          3 HRG      0.000000
     57 HD2        54.0702 -124.9648  211.4959 H          3 HRG      0.000000
     58 HD3        55.4259 -125.6281  212.4337 H          3 HRG      0.000000
     59 HE         56.2058 -124.9766  209.7279 H          3 HRG      0.000000
     60 HH11       55.4610 -128.2301  208.6718 H          3 HRG      0.000000
     61 HH12       55.6266 -126.5712  208.1417 H          3 HRG      0.000000
     62 HH21       55.5171 -127.4511  212.0369 H          3 HRG      0.000000
     63 HH22       55.3979 -128.7405  210.8607 H          3 HRG      0.000000
     64 Y0         56.9640 -119.4070  215.2520 N.am       4 HRG      0.000000
     65 X          58.0350 -118.9250  216.1160 C.3        4 HRG      0.000000
     66 X          57.4960 -118.5400  217.4890 C.2        4 HRG      0.000000
     67 X          58.0670 -118.9090  218.5140 O.2        4 HRG      0.000000
     68 X          58.7460 -117.7450  215.4730 C.3        4 HRG      0.000000
     69 X          56.7253 -118.8791  214.4247 H          4 HRG      0.000000
     70 X          58.7580 -119.7303  216.2460 H          4 HRG      0.000000
     71 X          59.5425 -117.3975  216.1310 H          4 HRG      0.000000
     72 X          58.0329 -116.9373  215.3082 H          4 HRG      0.000000
     73 X          59.1721 -118.0538  214.5185 H          4 HRG      0.000000
     74 X          56.3890 -117.7930  217.5020 N.am       5 HRG      0.000000
     75 X          55.7690 -117.4230  218.7700 C.3        5 HRG      0.000000
     76 X          55.1940 -118.6350  219.4900 C.2        5 HRG      0.000000
     77 X          55.1720 -118.6680  220.7260 O.2        5 HRG      0.000000
     78 X          54.6720 -116.3830  218.5430 C.3        5 HRG      0.000000
     79 X          55.1600 -115.0660  217.9690 C.3        5 HRG      0.000000
     80 X          54.0830 -113.9860  218.0330 C.3        5 HRG      0.000000
     81 X          52.8410 -114.3570  217.2280 C.3        5 HRG      0.000000
     82 X          51.8140 -115.0840  218.0310 N.4        5 HRG      0.000000
     83 X          55.9800 -117.4834  216.6320 H          5 HRG      0.000000
     84 X          56.5338 -116.9788  219.4070 H          5 HRG      0.000000
     85 X          54.8051 -119.4665  218.9209 H          5 HRG      0.000000
     86 X          53.9413 -116.8047  217.8528 H          5 HRG      0.000000
     87 X          54.1779 -116.1857  219.4944 H          5 HRG      0.000000
     88 X          55.4448 -115.2189  216.9280 H          5 HRG      0.000000
     89 X          56.0321 -114.7333  218.5319 H          5 HRG      0.000000
     90 X          54.4937 -113.0579  217.6355 H          5 HRG      0.000000
     91 X          53.7979 -113.8307  219.0735 H          5 HRG      0.000000
     92 X          52.3934 -113.4417  216.8408 H          5 HRG      0.000000
     93 X          53.1403 -114.9846  216.3886 H          5 HRG      0.000000
     94 X          51.0200 -115.3010  217.4457 H          5 HRG      0.000000
     95 X          51.5155 -114.5026  218.8010 H          5 HRG      0.000000
     96 X          52.2115 -115.9402  218.3901 H          5 HRG      0.000000
@<TRIPOS>BOND
     1    1    2 1
     2    1   16 1
     3    1   17 1
     4    1   18 1
     5    2    3 1
     6    2    5 1
     7    2   11 1
     8    3    4 2
     9    3   20 am
    10    5    6 1
    11    5   12 1
    12    5   13 1
    13    6    7 ar
    14    6    8 ar
    15    7    9 ar
    16    8   10 ar
    17    8   14 1
    18    9   10 ar
    19    9   15 1
    20   10   19 1
    21   20   21 1
    22   20   29 1
    23   21   22 1
    24   21   24 1
    25   21   30 1
    26   22   23 2
    27   22   37 am
    28   24   25 1
    29   24   31 1
    30   24   32 1
    31   25   26 1
    32   25   33 1
    33   25   34 1
    34   26   27 2
    35   26   28 am
    36   28   35 1
    37   28   36 1
    38   37   38 1
    39   37   49 1
    40   38   39 1
    41   38   47 1
    42   38   50 1
    43   39   41 1
    44   39   51 1
    45   39   52 1
    46   40   41 1
    47   40   42 1
    48   40   53 1
    49   40   54 1
    50   41   55 1
    51   41   56 1
    52   42   43 1
    53   42   57 1
    54   42   58 1
    55   43   44 1
    56   43   59 1
    57   44   45 2
    58   44   46 1
    59   45   60 1
    60   45   61 1
    61   46   62 1
    62   46   63 1
    63   47   48 2
    64   47   64 am
    65   64   65 1
    66   64   69 1
    67   65   66 1
    68   65   68 1
    69   65   70 1
    70   66   67 2
    71   66   74 am
    72   68   71 1
    73   68   72 1
    74   68   73 1
    75   74   75 1
    76   74   83 1
    77   75   76 1
    78   75   78 1
    79   75   84 1
    80   76   77 2
    81   76   85 1
    82   78   79 1
    83   78   86 1
    84   78   87 1
    85   79   80 1
    86   79   88 1
    87   79   89 1
    88   80   81 1
    89   80   90 1
    90   80   91 1
    91   81   82 1
    92   81   92 1
    93   81   93 1
    94   82   94 1
    95   82   95 1
    96   82   96 1
