# created with PyMOL 2.3.5
@<TRIPOS>MOLECULE
NU8
48 51 1 0 0
SMALL
USER_CHARGES


@<TRIPOS>ATOM
      1 N1         -3.1300   -1.8690    0.9110 N.2       1 NU81        0.0000
      2 N3         -1.2050   -0.5020    0.9250 N.pl3     1 NU81        0.0000
      3 C4         -1.8520   -1.6820    0.6090 C.2       1 NU81        0.0000
      4 C5          0.0450   -0.1200    0.7160 C.2       1 NU81        0.0000
      5 C6         -1.1610   -2.7100   -0.0400 C.2       1 NU81        0.0000
      6 C7          4.8640    0.5350   -0.4820 C.2       1 NU81        0.0000
      7 C8          4.1230    1.0770    0.5660 C.2       1 NU81        0.0000
      8 C10         2.3200   -0.3560   -0.0660 C.2       1 NU81        0.0000
      9 C13        -3.9220    2.9970   -1.3060 C.2       1 NU81        0.0000
     10 C15        -2.0780    2.5330    0.1540 C.2       1 NU81        0.0000
     11 C17        -3.9410    1.0270    0.0600 C.2       1 NU81        0.0000
     12 C20         3.8360    2.5390    2.4200 C.3       1 NU81        0.0000
     13 C1         -1.7700   -3.8880   -0.3670 C.2       1 NU81        0.0000
     14 C11         3.1170   -0.8430   -1.0910 C.2       1 NU81        0.0000
     15 C12        -2.0420    0.4910    1.6040 C.3       1 NU81        0.0000
     16 C14        -2.6860    3.3450   -0.7880 C.2       1 NU81        0.0000
     17 C16        -2.7050    1.3740    0.5780 C.2       1 NU81        0.0000
     18 C18        -4.5490    1.8380   -0.8810 C.2       1 NU81        0.0000
     19 C19         6.8410    0.3750   -1.7920 C.3       1 NU81        0.0000
     20 C2         -3.1140   -4.0340   -0.0280 C.2       1 NU81        0.0000
     21 C3         -3.7540   -2.9910    0.6140 C.2       1 NU81        0.0000
     22 C9          2.8290    0.6260    0.7810 C.2       1 NU81        0.0000
     23 F1         -4.5190    3.7920   -2.2210 F         1 NU81        0.0000
     24 F2         -0.8720    2.8720    0.6600 F         1 NU81        0.0000
     25 F3         -4.5520   -0.1050    0.4740 F         1 NU81        0.0000
     26 N2          4.3450   -0.3920   -1.2670 N.2       1 NU81        0.0000
     27 N4          1.0180   -0.8420    0.1130 N.pl3     1 NU81        0.0000
     28 O1          0.3490    0.9920    1.1040 O.2       1 NU81        0.0000
     29 O2          0.6300   -2.3380   -1.8200 O.2       1 NU81        0.0000
     30 O3          1.2890   -3.2870    0.3830 O.2       1 NU81        0.0000
     31 O4          6.1320    0.9690   -0.7020 O.3       1 NU81        0.0000
     32 O5          4.6610    2.0350    1.3680 O.3       1 NU81        0.0000
     33 S1          0.5410   -2.3690   -0.4030 S.O2      1 NU81        0.0000
     34 H1          2.9370    2.9850    1.9950 H         1 NU81        0.0000
     35 H2          3.5570    1.7220    3.0860 H         1 NU81        0.0000
     36 H3          4.3850    3.2950    2.9820 H         1 NU81        0.0000
     37 H4         -1.2300   -4.6780   -0.8690 H         1 NU81        0.0000
     38 H5          2.7300   -1.6050   -1.7510 H         1 NU81        0.0000
     39 H6         -2.8050   -0.0190    2.1920 H         1 NU81        0.0000
     40 H7         -1.4220    1.1000    2.2620 H         1 NU81        0.0000
     41 H8         -2.1970    4.2480   -1.1190 H         1 NU81        0.0000
     42 H9         -5.5140    1.5670   -1.2850 H         1 NU81        0.0000
     43 H10         6.9230   -0.6990   -1.6300 H         1 NU81        0.0000
     44 H11         6.3010    0.5620   -2.7210 H         1 NU81        0.0000
     45 H12         7.8380    0.8100   -1.8570 H         1 NU81        0.0000
     46 H13        -3.6450   -4.9450   -0.2620 H         1 NU81        0.0000
     47 H14        -4.7960   -3.0990    0.8790 H         1 NU81        0.0000
     48 H15         2.2300    1.0270    1.5860 H         1 NU81        0.0000
@<TRIPOS>BOND
     1   11   25 1
     2   11   18 2
     3    9   18 1
     4   11   17 1
     5    9   23 1
     6    9   16 2
     7   15   17 1
     8   10   17 2
     9    2   15 1
    10   10   16 1
    11   10   24 1
    12    4   28 2
    13    1   21 2
    14    1    3 1
    15    2    4 1
    16    2    3 1
    17    4   27 1
    18   20   21 1
    19    3    5 2
    20    8   27 1
    21   27   33 1
    22   13   20 2
    23    5   13 1
    24    5   33 1
    25    8   22 2
    26    8   14 1
    27    7   22 1
    28   12   32 1
    29   30   33 2
    30   14   26 2
    31   29   33 2
    32    7   32 1
    33    6    7 2
    34    6   26 1
    35    6   31 1
    36   19   31 1
    37   12   34 1
    38   12   35 1
    39   12   36 1
    40   13   37 1
    41   14   38 1
    42   15   39 1
    43   15   40 1
    44   16   41 1
    45   18   42 1
    46   19   43 1
    47   19   44 1
    48   19   45 1
    49   20   46 1
    50   21   47 1
    51   22   48 1
@<TRIPOS>SUBSTRUCTURE
     1 NU81        1 RESIDUE           4 A     NU8     0 ROOT
