@<TRIPOS>MOLECULE
UN2
27 28 1 0 0
SMALL
NO_CHARGES


@<TRIPOS>ATOM
      1 N0         95.9280  105.7270   95.3970 N.4       1 UN20        0.0000
      2 C0         97.1360  106.4550   94.9900 C.3       1 UN20        0.0000
      3 C1         98.1810  105.5110   94.3820 C.3       1 UN20        0.0000
      4 C2         98.5070  104.4500   95.4220 C.ar      1 UN20        0.0000
      5 C3         98.1420  103.1410   95.3610 C.ar      1 UN20        0.0000
      6 N1         98.6000  102.4920   96.4870 N.ar      1 UN20        0.0000
      7 C4         99.2930  103.3950   97.2680 C.ar      1 UN20        0.0000
      8 C5         99.9610  103.1840   98.4870 C.ar      1 UN20        0.0000
      9 C6        100.6450  104.2520   99.0400 C.ar      1 UN20        0.0000
     10 C7        100.6480  105.4970   98.3580 C.ar      1 UN20        0.0000
     11 N2        101.4230  106.5890   98.9100 N.2       1 UN20        0.0000
     12 O0        101.9420  107.4040   98.1620 O.co2     1 UN20        0.0000
     13 O1        101.5630  106.7110  100.1150 O.co2     1 UN20        0.0000
     14 C8         99.9580  105.7090   97.1670 C.ar      1 UN20        0.0000
     15 C9         99.2580  104.6250   96.6100 C.ar      1 UN20        0.0000
     16 H0         95.2320  106.3800   95.7880 H         1 UN20        0.0000
     17 H1         96.1320  105.0210   96.0800 H         1 UN20        0.0000
     18 H2         95.4400  105.3230   94.6020 H         1 UN20        0.0000
     19 H3         97.5750  106.9490   95.8610 H         1 UN20        0.0000
     20 H4         96.8750  107.2220   94.2560 H         1 UN20        0.0000
     21 H5         99.0770  106.0770   94.1290 H         1 UN20        0.0000
     22 H6         97.7790  105.0470   93.4800 H         1 UN20        0.0000
     23 H7         97.6190  102.6060   94.6130 H         1 UN20        0.0000
     24 H8         98.4610  101.4840   96.7040 H         1 UN20        0.0000
     25 H9         99.9490  102.2320   98.9570 H         1 UN20        0.0000
     26 H10       101.1670  104.1410   99.9570 H         1 UN20        0.0000
     27 H11        99.9770  106.6500   96.6810 H         1 UN20        0.0000
@<TRIPOS>BOND
     1    1    2 1
     2    1   16 1
     3    1   17 1
     4    1   18 1
     5    2    3 1
     6    2   19 1
     7    2   20 1
     8    3    4 1
     9    3   21 1
    10    3   22 1
    11    4    5 ar
    12    4   15 ar
    13    5    6 ar
    14    5   23 1
    15    6    7 ar
    16    6   24 1
    17    7    8 ar
    18    7   15 ar
    19    8    9 ar
    20    8   25 1
    21    9   10 ar
    22    9   26 1
    23   10   11 1
    24   10   14 ar
    25   11   12 2
    26   11   13 2
    27   14   15 ar
    28   14   27 1
@<TRIPOS>SUBSTRUCTURE
     1 UN20        1 RESIDUE           4 L     UN2     0 ROOT
