@<TRIPOS>MOLECULE
UN2
27 28 1 0 0
SMALL
NO_CHARGES


@<TRIPOS>ATOM
      1 N0         95.9230  105.7160   95.4100 N.4       1 UN20        0.0000
      2 C0         97.1270  106.4490   95.0030 C.3       1 UN20        0.0000
      3 C1         98.1700  105.5080   94.3910 C.3       1 UN20        0.0000
      4 C2         98.5060  104.4480   95.4290 C.ar      1 UN20        0.0000
      5 C3         98.1530  103.1350   95.3690 C.ar      1 UN20        0.0000
      6 N1         98.6240  102.4890   96.4930 N.ar      1 UN20        0.0000
      7 C4         99.3010  103.4010   97.2750 C.ar      1 UN20        0.0000
      8 C5         99.9640  103.1950   98.4960 C.ar      1 UN20        0.0000
      9 C6        100.6440  104.2650   99.0490 C.ar      1 UN20        0.0000
     10 C7        100.6450  105.5080   98.3640 C.ar      1 UN20        0.0000
     11 N2        101.4210  106.6000   98.9120 N.2       1 UN20        0.0000
     12 O0        101.9400  107.4130   98.1620 O.co2     1 UN20        0.0000
     13 O1        101.5640  106.7230  100.1160 O.co2     1 UN20        0.0000
     14 C8         99.9540  105.7170   97.1710 C.ar      1 UN20        0.0000
     15 C9         99.2580  104.6300   96.6160 C.ar      1 UN20        0.0000
     16 H0         95.2280  106.3660   95.8050 H         1 UN20        0.0000
     17 H1         96.1320  105.0070   96.0890 H         1 UN20        0.0000
     18 H2         95.4340  105.3150   94.6150 H         1 UN20        0.0000
     19 H3         97.5670  106.9430   95.8730 H         1 UN20        0.0000
     20 H4         96.8620  107.2170   94.2710 H         1 UN20        0.0000
     21 H5         99.0620  106.0810   94.1350 H         1 UN20        0.0000
     22 H6         97.7660  105.0450   93.4910 H         1 UN20        0.0000
     23 H7         97.6320  102.5950   94.6220 H         1 UN20        0.0000
     24 H8         98.5180  101.4750   96.7100 H         1 UN20        0.0000
     25 H9         99.9470  102.2430   98.9670 H         1 UN20        0.0000
     26 H10       101.1630  104.1570   99.9680 H         1 UN20        0.0000
     27 H11        99.9710  106.6570   96.6840 H         1 UN20        0.0000
@<TRIPOS>BOND
     1    1    2 1
     2    1   16 1
     3    1   17 1
     4    1   18 1
     5    2    3 1
     6    2   19 1
     7    2   20 1
     8    3    4 1
     9    3   21 1
    10    3   22 1
    11    4    5 ar
    12    4   15 ar
    13    5    6 ar
    14    5   23 1
    15    6    7 ar
    16    6   24 1
    17    7    8 ar
    18    7   15 ar
    19    8    9 ar
    20    8   25 1
    21    9   10 ar
    22    9   26 1
    23   10   11 1
    24   10   14 ar
    25   11   12 2
    26   11   13 2
    27   14   15 ar
    28   14   27 1
@<TRIPOS>SUBSTRUCTURE
     1 UN20        1 RESIDUE           4 L     UN2     0 ROOT
