@<TRIPOS>MOLECULE
    ORN
   86    88     0     0     0
SMALL
USER_CHARGES


@<TRIPOS>ATOM
      1 X          -3.5800   29.6780   14.2020 C.2        1 ORN      0.000000
      2 X          -3.7040   29.7660   15.4230 O.2        1 ORN      0.000000
      3 X          -4.6300   30.1750   13.2530 C.3        1 ORN      0.000000
      4 X          -5.4580   30.6029   13.8181 H          1 ORN      0.000000
      5 X          -4.9942   29.3451   12.6474 H          1 ORN      0.000000
      6 X          -4.2009   30.9379   12.6034 H          1 ORN      0.000000
      7 X          -2.5110   29.1300   13.6330 N.am       2 ORN      0.000000
      8 X          -1.4000   28.6390   14.4380 C.3        2 ORN      0.000000
      9 X          -0.6500   29.7960   15.0860 C.2        2 ORN      0.000000
     10 X          -0.5410   30.8790   14.5110 O.2        2 ORN      0.000000
     11 X          -0.4420   27.8010   13.5880 C.3        2 ORN      0.000000
     12 X           0.7540   27.2950   14.3440 C.ar       2 ORN      0.000000
     13 X           0.6480   26.1960   15.1810 C.ar       2 ORN      0.000000
     14 X           1.9860   27.9190   14.2190 C.ar       2 ORN      0.000000
     15 X           1.7460   25.7290   15.8790 C.ar       2 ORN      0.000000
     16 X           3.0880   27.4560   14.9150 C.ar       2 ORN      0.000000
     17 X           2.9670   26.3590   15.7450 C.ar       2 ORN      0.000000
     18 X          -2.4681   29.0527   12.6269 H          2 ORN      0.000000
     19 X          -1.8022   28.0050   15.2281 H          2 ORN      0.000000
     20 X          -0.0900   28.4159   12.7597 H          2 ORN      0.000000
     21 X          -0.9873   26.9481   13.1839 H          2 ORN      0.000000
     22 X          -0.3042   25.6980   15.2894 H          2 ORN      0.000000
     23 X           2.0863   28.7768   13.5705 H          2 ORN      0.000000
     24 X           1.6487   24.8718   16.5287 H          2 ORN      0.000000
     25 X           4.0417   27.9517   14.8095 H          2 ORN      0.000000
     26 X           3.8262   25.9945   16.2884 H          2 ORN      0.000000
     27 N          -0.1360   29.5590   16.2870 N.am       3 ORN      0.000000
     28 CA          0.6070   30.5770   17.0140 C.3        3 ORN      0.000000
     29 CB         -0.3560   31.5080   17.7530 C.3        3 ORN      0.000000
     30 CG          0.2640   32.8190   18.1970 C.3        3 ORN      0.000000
     31 CD         -0.7200   33.7770   18.8480 C.3        3 ORN      0.000000
     32 NE         -1.1480   33.3130   20.1640 N.4        3 ORN      0.000000
     33 C           1.5670   29.9220   17.9970 C.2        3 ORN      0.000000
     34 O           1.1400   29.1990   18.8960 O.2        3 ORN      0.000000
     35 H          -0.2640   28.6492   16.7065 H          3 ORN      0.000000
     36 HA          1.1841   31.1653   16.3006 H          3 ORN      0.000000
     37 HB2        -1.1910   31.7324   17.0893 H          3 ORN      0.000000
     38 HB3        -0.7386   30.9881   18.6313 H          3 ORN      0.000000
     39 HG2         0.6926   33.3091   17.3228 H          3 ORN      0.000000
     40 HG3         1.0644   32.6051   18.9054 H          3 ORN      0.000000
     41 HD2        -0.2427   34.7509   18.9568 H          3 ORN      0.000000
     42 HD3        -1.5945   33.8794   18.2054 H          3 ORN      0.000000
     43 HE1        -1.7988   33.9761   20.5600 H          3 ORN      0.000000
     44 HE2        -1.5977   32.4132   20.0736 H          3 ORN      0.000000
     45 HE3        -0.3438   33.2282   20.7691 H          3 ORN      0.000000
     46 Y0          2.8730   30.1730   17.8270 N.am       4 ORN      0.000000
     47 X           3.8940   29.5770   18.6950 C.3        4 ORN      0.000000
     48 X           3.8160   30.1050   20.1240 C.2        4 ORN      0.000000
     49 X           3.4030   31.2450   20.3390 O.2        4 ORN      0.000000
     50 X           5.2070   29.9960   18.0290 C.3        4 ORN      0.000000
     51 X           4.8710   31.2560   17.3100 C.3        4 ORN      0.000000
     52 X           3.4620   31.0740   16.8210 C.3        4 ORN      0.000000
     53 X           3.8017   28.4909   18.6912 H          4 ORN      0.000000
     54 X           5.9796   30.1731   18.7772 H          4 ORN      0.000000
     55 X           5.5329   29.2328   17.3223 H          4 ORN      0.000000
     56 X           5.5491   31.4080   16.4703 H          4 ORN      0.000000
     57 X           4.9244   32.1035   17.9934 H          4 ORN      0.000000
     58 X           3.4473   30.6180   15.8311 H          4 ORN      0.000000
     59 X           2.9359   32.0286   16.8092 H          4 ORN      0.000000
     60 X           6.4910   28.6760   22.2550 C.3        5 ORN      0.000000
     61 X           7.2600   29.9660   22.0080 C.3        5 ORN      0.000000
     62 X           8.2220   30.3330   23.1160 C.3        5 ORN      0.000000
     63 X           9.1290   29.1750   23.4790 C.3        5 ORN      0.000000
     64 X           8.3120   27.9700   23.8920 C.3        5 ORN      0.000000
     65 X           7.3440   27.5430   22.8100 C.3        5 ORN      0.000000
     66 X           4.2030   29.2770   21.0880 N.am       5 ORN      0.000000
     67 X           4.2210   29.6820   22.4510 C.3        5 ORN      0.000000
     68 X           5.3160   28.9470   23.1970 C.3        5 ORN      0.000000
     69 X           2.8840   29.3930   23.0940 C.2        5 ORN      0.000000
     70 X           2.3750   28.2430   23.0240 O.2        5 ORN      0.000000
     71 X           6.0815   28.3459   21.3003 H          5 ORN      0.000000
     72 X           7.8282   29.8543   21.0845 H          5 ORN      0.000000
     73 X           6.5457   30.7796   21.8821 H          5 ORN      0.000000
     74 X           7.6506   30.6234   23.9976 H          5 ORN      0.000000
     75 X           8.8325   31.1763   22.7932 H          5 ORN      0.000000
     76 X           9.7745   29.4709   24.3060 H          5 ORN      0.000000
     77 X           9.7438   28.9152   22.6173 H          5 ORN      0.000000
     78 X           7.7476   28.2190   24.7906 H          5 ORN      0.000000
     79 X           8.9858   27.1423   24.1132 H          5 ORN      0.000000
     80 X           6.6788   26.7860   23.2255 H          5 ORN      0.000000
     81 X           7.9098   27.0988   21.9911 H          5 ORN      0.000000
     82 X           4.4908   28.3392   20.8476 H          5 ORN      0.000000
     83 X           4.4149   30.7535   22.5007 H          5 ORN      0.000000
     84 X           4.9264   28.0004   23.5714 H          5 ORN      0.000000
     85 X           5.6558   29.5560   24.0347 H          5 ORN      0.000000
     86 X           2.3607   30.1792   23.6179 H          5 ORN      0.000000
@<TRIPOS>BOND
     1    1    2 2
     2    1    3 1
     3    1    7 am
     4    3    4 1
     5    3    5 1
     6    3    6 1
     7    7    8 1
     8    7   18 1
     9    8    9 1
    10    8   11 1
    11    8   19 1
    12    9   10 2
    13    9   27 am
    14   11   12 1
    15   11   20 1
    16   11   21 1
    17   12   13 ar
    18   12   14 ar
    19   13   15 ar
    20   13   22 1
    21   14   16 ar
    22   14   23 1
    23   15   17 ar
    24   15   24 1
    25   16   17 ar
    26   16   25 1
    27   17   26 1
    28   27   28 1
    29   27   35 1
    30   28   29 1
    31   28   33 1
    32   28   36 1
    33   29   30 1
    34   29   37 1
    35   29   38 1
    36   30   31 1
    37   30   39 1
    38   30   40 1
    39   31   32 1
    40   31   41 1
    41   31   42 1
    42   32   43 1
    43   32   44 1
    44   32   45 1
    45   33   34 2
    46   33   46 am
    47   46   47 1
    48   46   52 1
    49   47   48 1
    50   47   50 1
    51   47   53 1
    52   48   49 2
    53   48   66 am
    54   50   51 1
    55   50   54 1
    56   50   55 1
    57   51   52 1
    58   51   56 1
    59   51   57 1
    60   52   58 1
    61   52   59 1
    62   60   61 1
    63   60   65 1
    64   60   68 1
    65   60   71 1
    66   61   62 1
    67   61   72 1
    68   61   73 1
    69   62   63 1
    70   62   74 1
    71   62   75 1
    72   63   64 1
    73   63   76 1
    74   63   77 1
    75   64   65 1
    76   64   78 1
    77   64   79 1
    78   65   80 1
    79   65   81 1
    80   66   67 1
    81   66   82 1
    82   67   68 1
    83   67   69 1
    84   67   83 1
    85   68   84 1
    86   68   85 1
    87   69   70 2
    88   69   86 1
