# created with PyMOL 2.3.5
@<TRIPOS>MOLECULE
SG8
62 66 1                 
SMALL
USER_CHARGES
@<TRIPOS>ATOM
1	  C4	-4.575	0.252	-0.951	C.2	1	SG80	0.000	
2	  C3	-5.648	0.803	-0.289	C.2	1	SG80	0.000	
3	  C2	-5.446	1.790	0.668	C.2	1	SG80	0.000	
4	  C1	-4.179	2.226	0.963	C.2	1	SG80	0.000	
5	  O1	1.141	2.141	0.535	O.2	1	SG80	0.000	
6	 CL1	-1.148	3.184	1.584	Cl	1	SG80	0.000	
7	  F1	-4.780	-0.704	-1.884	 F	1	SG80	0.000	
8	  S1	-1.729	0.168	-1.342	S.3	1	SG80	0.000	
9	  N1	1.354	0.848	-1.259	N.pl3	1	SG80	0.000	
10	 C10	0.706	0.181	-2.391	C.3	1	SG80	0.000	
11	 C11	2.815	0.854	-1.151	C.3	1	SG80	0.000	
12	 C12	0.553	-1.288	-2.088	C.2	1	SG80	0.000	
13	 C13	0.580	-2.211	-3.117	C.2	1	SG80	0.000	
14	 C14	0.445	-3.561	-2.846	C.2	1	SG80	0.000	
15	 C15	0.285	-3.993	-1.545	C.2	1	SG80	0.000	
16	 C16	0.258	-3.067	-0.504	C.2	1	SG80	0.000	
17	 C17	0.393	-1.709	-0.783	C.2	1	SG80	0.000	
18	 C18	3.322	2.297	-1.161	C.3	1	SG80	0.000	
19	 C19	4.848	2.303	-1.048	C.3	1	SG80	0.000	
20	  F2	-4.000	3.186	1.896	 F	1	SG80	0.000	
21	  N2	6.730	1.631	0.367	N.3	1	SG80	0.000	
22	 C20	5.265	1.625	0.259	C.3	1	SG80	0.000	
23	 C21	4.759	0.182	0.269	C.3	1	SG80	0.000	
24	 C22	3.233	0.176	0.156	C.3	1	SG80	0.000	
25	 C23	7.154	1.558	1.772	C.3	1	SG80	0.000	
26	 C24	0.055	-2.611	1.953	C.2	1	SG80	0.000	
27	 C25	-0.108	-3.081	3.240	C.2	1	SG80	0.000	
28	 C26	-0.202	-5.268	2.512	C.2	1	SG80	0.000	
29	 C27	-0.053	-4.884	1.195	C.2	1	SG80	0.000	
30	 C28	0.085	-3.526	0.896	C.2	1	SG80	0.000	
31	  N3	-0.230	-4.372	3.480	N.2	1	SG80	0.000	
32	  C5	-3.272	0.680	-0.667	C.2	1	SG80	0.000	
33	  C6	-3.057	1.674	0.294	C.2	1	SG80	0.000	
34	  C7	-0.852	1.294	-0.320	C.2	1	SG80	0.000	
35	  C8	-1.697	1.985	0.455	C.2	1	SG80	0.000	
36	  C9	0.607	1.457	-0.317	C.2	1	SG80	0.000	
37	  H1	-6.649	0.467	-0.513	 H	1	SG80	0.000	
38	  H2	-6.293	2.218	1.183	 H	1	SG80	0.000	
39	  H3	-0.276	0.621	-2.558	 H	1	SG80	0.000	
40	  H4	1.317	0.306	-3.285	 H	1	SG80	0.000	
41	  H5	3.244	0.312	-1.994	 H	1	SG80	0.000	
42	  H6	0.706	-1.877	-4.136	 H	1	SG80	0.000	
43	  H7	0.466	-4.278	-3.653	 H	1	SG80	0.000	
44	  H8	0.179	-5.047	-1.334	 H	1	SG80	0.000	
45	  H9	0.377	-0.987	0.020	 H	1	SG80	0.000	
46	 H10	3.025	2.780	-2.092	 H	1	SG80	0.000	
47	 H11	2.893	2.839	-0.317	 H	1	SG80	0.000	
48	 H12	5.277	1.762	-1.891	 H	1	SG80	0.000	
49	 H13	5.209	3.332	-1.055	 H	1	SG80	0.000	
50	 H14	7.135	0.881	-0.172	 H	1	SG80	0.000	
51	 H16	4.836	2.166	1.102	 H	1	SG80	0.000	
52	 H17	5.187	-0.360	-0.575	 H	1	SG80	0.000	
53	 H18	5.056	-0.301	1.199	 H	1	SG80	0.000	
54	 H19	2.804	0.717	0.999	 H	1	SG80	0.000	
55	 H20	2.872	-0.853	0.163	 H	1	SG80	0.000	
56	 H21	8.243	1.564	1.823	 H	1	SG80	0.000	
57	 H22	6.760	2.417	2.315	 H	1	SG80	0.000	
58	 H23	6.774	0.640	2.219	 H	1	SG80	0.000	
59	 H24	0.154	-1.553	1.764	 H	1	SG80	0.000	
60	 H25	-0.136	-2.381	4.063	 H	1	SG80	0.000	
61	 H26	-0.306	-6.316	2.753	 H	1	SG80	0.000	
62	 H27	-0.031	-5.623	0.408	 H	1	SG80	0.000	
@<TRIPOS>BOND
1 14 15 2
2 13 14 1
3 15 16 1
4 12 13 2
5 28 29 2
6 29 30 1
7 1 7 1
8 28 31 1
9 16 30 1
10 16 17 2
11 26 30 2
12 8 32 1
13 8 34 1
14 12 17 1
15 10 12 1
16 1 32 2
17 1 2 1
18 23 24 1
19 11 24 1
20 27 31 2
21 22 23 1
22 32 33 1
23 2 3 2
24 26 27 1
25 34 36 1
26 34 35 2
27 9 10 1
28 9 36 1
29 5 36 2
30 9 11 1
31 11 18 1
32 21 22 1
33 19 22 1
34 21 25 1
35 33 35 1
36 4 33 2
37 3 4 1
38 6 35 1
39 4 20 1
40 18 19 1
41 2 37 1
42 3 38 1
43 10 39 1
44 10 40 1
45 11 41 1
46 13 42 1
47 14 43 1
48 15 44 1
49 17 45 1
50 18 46 1
51 18 47 1
52 19 48 1
53 19 49 1
54 21 50 1
55 22 51 1
56 23 52 1
57 23 53 1
58 24 54 1
59 24 55 1
60 25 56 1
61 25 57 1
62 25 58 1
63 26 59 1
64 27 60 1
65 28 61 1
66 29 62 1
@<TRIPOS>SUBSTRUCTURE
1	SG80	1	GROUP	1 ****	SG8
