# created with PyMOL 2.3.5
@<TRIPOS>MOLECULE
K86
68 71 1 0 0
SMALL
USER_CHARGES


@<TRIPOS>ATOM
      1 C10         4.0990   -0.4290    0.1460 C.2       1 K861        0.0000
      2 C15        -0.5670   -0.3160   -0.4330 C.2       1 K861        0.0000
      3 C17        -1.7890    1.5070    0.5320 C.2       1 K861        0.0000
      4 C21         1.2500    2.8000   -1.0400 C.2       1 K861        0.0000
      5 C24         3.1280    4.5090   -1.8870 C.2       1 K861        0.0000
      6 C28        -2.8880    3.4090    1.4370 C.3       1 K861        0.0000
      7 C1          5.4830    0.1130    2.7750 C.3       1 K861        0.0000
      8 C2          5.7440   -1.1170    1.9020 C.3       1 K861        0.0000
      9 C3          6.9600   -0.8610    1.0100 C.3       1 K861        0.0000
     10 C4          6.0130   -2.3290    2.7970 C.3       1 K861        0.0000
     11 C5          4.5370   -1.3860    1.0410 C.2       1 K861        0.0000
     12 C6          3.8680   -2.5910    1.1470 C.2       1 K861        0.0000
     13 C7          2.7610   -2.8390    0.3560 C.2       1 K861        0.0000
     14 C8          2.3230   -1.8810   -0.5400 C.2       1 K861        0.0000
     15 C9          2.9880   -0.6740   -0.6400 C.2       1 K861        0.0000
     16 S11         0.9130   -2.1970   -1.5480 S.O2      1 K861        0.0000
     17 O12         1.0350   -1.3520   -2.6840 O.2       1 K861        0.0000
     18 O13         0.7930   -3.6100   -1.6390 O.2       1 K861        0.0000
     19 N14        -0.4150   -1.6680   -0.7120 N.pl3     1 K861        0.0000
     20 C16        -1.6820    0.1410    0.2770 C.2       1 K861        0.0000
     21 N18        -0.8370    2.3220    0.0960 N.2       1 K861        0.0000
     22 C19         0.2080    1.8530   -0.5700 C.2       1 K861        0.0000
     23 N20         0.3470    0.5610   -0.8320 N.2       1 K861        0.0000
     24 N22         1.1110    4.0930   -0.7830 N.2       1 K861        0.0000
     25 C23         2.0200    4.9640   -1.1880 C.2       1 K861        0.0000
     26 C25         3.2470    3.1480   -2.1290 C.2       1 K861        0.0000
     27 N26         2.2990    2.3320   -1.7010 N.2       1 K861        0.0000
     28 O27        -2.8530    1.9970    1.2170 O.3       1 K861        0.0000
     29 C29        -4.1520    3.7710    2.2200 C.3       1 K861        0.0000
     30 O30        -4.0900    3.1870    3.5220 O.3       1 K861        0.0000
     31 O31        -2.6370   -0.7260    0.7070 O.3       1 K861        0.0000
     32 C32        -3.6830   -0.9870   -0.1220 C.2       1 K861        0.0000
     33 C33        -3.7520   -0.3770   -1.3650 C.2       1 K861        0.0000
     34 C34        -4.8160   -0.6440   -2.2070 C.2       1 K861        0.0000
     35 C35        -5.8110   -1.5180   -1.8130 C.2       1 K861        0.0000
     36 C36        -5.7480   -2.1300   -0.5740 C.2       1 K861        0.0000
     37 C37        -4.6820   -1.8720    0.2730 C.2       1 K861        0.0000
     38 O38        -4.6190   -2.4730    1.4910 O.3       1 K861        0.0000
     39 C39        -5.6850   -3.3600    1.8330 C.3       1 K861        0.0000
     40 H1          4.6210    0.5130    0.0640 H         1 K861        0.0000
     41 H2          3.8860    5.1980   -2.2300 H         1 K861        0.0000
     42 H3         -2.0090    3.7100    2.0070 H         1 K861        0.0000
     43 H4         -2.8940    3.9260    0.4780 H         1 K861        0.0000
     44 H5          6.3560    0.3080    3.3980 H         1 K861        0.0000
     45 H6          5.2910    0.9760    2.1380 H         1 K861        0.0000
     46 H7          4.6170   -0.0690    3.4100 H         1 K861        0.0000
     47 H8          7.8330   -0.6660    1.6330 H         1 K861        0.0000
     48 H9          7.1460   -1.7370    0.3890 H         1 K861        0.0000
     49 H10         6.7680    0.0020    0.3730 H         1 K861        0.0000
     50 H11         5.1460   -2.5110    3.4320 H         1 K861        0.0000
     51 H12         6.1990   -3.2050    2.1750 H         1 K861        0.0000
     52 H13         6.8860   -2.1340    3.4200 H         1 K861        0.0000
     53 H14         4.2100   -3.3400    1.8460 H         1 K861        0.0000
     54 H15         2.2380   -3.7800    0.4380 H         1 K861        0.0000
     55 H16         2.6460    0.0750   -1.3400 H         1 K861        0.0000
     56 H17        -1.0870   -2.3030   -0.4170 H         1 K861        0.0000
     57 H18         1.9020    6.0160   -0.9750 H         1 K861        0.0000
     58 H19         4.0970    2.7610   -2.6710 H         1 K861        0.0000
     59 H20        -4.2250    4.8550    2.3110 H         1 K861        0.0000
     60 H21        -5.0270    3.3910    1.6920 H         1 K861        0.0000
     61 H22        -4.8600    3.3760    4.0750 H         1 K861        0.0000
     62 H23        -2.9760    0.3070   -1.6750 H         1 K861        0.0000
     63 H24        -4.8690   -0.1680   -3.1750 H         1 K861        0.0000
     64 H25        -6.6400   -1.7240   -2.4740 H         1 K861        0.0000
     65 H26        -6.5270   -2.8130   -0.2690 H         1 K861        0.0000
     66 H27        -5.5120   -3.7700    2.8280 H         1 K861        0.0000
     67 H28        -6.6290   -2.8140    1.8250 H         1 K861        0.0000
     68 H29        -5.7290   -4.1720    1.1080 H         1 K861        0.0000
@<TRIPOS>BOND
     1   38   39 1
     2   29   30 1
     3    6   29 1
     4    6   28 1
     5   37   38 1
     6    3   28 1
     7   36   37 2
     8   32   37 1
     9   35   36 1
    10   31   32 1
    11   20   31 1
    12   32   33 2
    13   34   35 2
    14    3   20 2
    15    3   21 1
    16   33   34 1
    17    2   20 1
    18   21   22 2
    19    2   19 1
    20    2   23 2
    21   22   23 1
    22    4   22 1
    23   16   19 1
    24    4   27 2
    25   26   27 1
    26    4   24 1
    27    5   26 2
    28   16   17 2
    29   16   18 2
    30   14   16 1
    31    1   15 2
    32   14   15 1
    33   24   25 2
    34    1   11 1
    35   13   14 2
    36    5   25 1
    37    8   11 1
    38   11   12 2
    39    8    9 1
    40   12   13 1
    41    7    8 1
    42    8   10 1
    43    1   40 1
    44    5   41 1
    45    6   42 1
    46    6   43 1
    47    7   44 1
    48    7   45 1
    49    7   46 1
    50    9   47 1
    51    9   48 1
    52    9   49 1
    53   10   50 1
    54   10   51 1
    55   10   52 1
    56   12   53 1
    57   13   54 1
    58   15   55 1
    59   19   56 1
    60   25   57 1
    61   26   58 1
    62   29   59 1
    63   29   60 1
    64   30   61 1
    65   33   62 1
    66   34   63 1
    67   35   64 1
    68   36   65 1
    69   39   66 1
    70   39   67 1
    71   39   68 1
@<TRIPOS>SUBSTRUCTURE
     1 K861        1 RESIDUE           4 A     K86     0 ROOT
