# created with PyMOL 2.3.5
@<TRIPOS>MOLECULE
ERC
59 61 1                 
SMALL
USER_CHARGES
@<TRIPOS>ATOM
1	  C1	-6.409	2.999	0.427	C.2	1	ERC0	0.000	
2	  N1	-6.922	2.179	-0.507	N.pl3	1	ERC0	0.000	
3	  O1	-6.845	4.133	0.526	O.2	1	ERC0	0.000	
4	  S1	10.173	2.755	-0.844	S.3	1	ERC0	0.000	
5	  C2	-5.383	2.577	1.299	C.2	1	ERC0	0.000	
6	  N2	-1.444	-1.501	1.267	N.3	1	ERC0	0.000	
7	  O2	-7.981	0.470	-2.441	O.3	1	ERC0	0.000	
8	  C3	-4.887	1.318	1.212	C.2	1	ERC0	0.000	
9	  O3	-3.954	-2.824	1.060	O.3	1	ERC0	0.000	
10	  C4	-5.438	0.417	0.198	C.2	1	ERC0	0.000	
11	  O4	4.874	-2.661	-1.064	O.3	1	ERC0	0.000	
12	  C5	-6.456	0.888	-0.650	C.2	1	ERC0	0.000	
13	  O5	6.044	-0.280	-0.323	O.3	1	ERC0	0.000	
14	  C6	-6.988	0.036	-1.620	C.2	1	ERC0	0.000	
15	  C7	-6.501	-1.252	-1.739	C.2	1	ERC0	0.000	
16	  C8	-5.489	-1.706	-0.905	C.2	1	ERC0	0.000	
17	  C9	-4.966	-0.893	0.061	C.2	1	ERC0	0.000	
18	 C10	-3.872	-1.400	0.964	C.3	1	ERC0	0.000	
19	 C11	-2.511	-1.007	0.386	C.3	1	ERC0	0.000	
20	 C12	-0.119	-1.140	0.742	C.3	1	ERC0	0.000	
21	 C13	0.964	-1.671	1.684	C.3	1	ERC0	0.000	
22	 C14	2.322	-1.301	1.146	C.2	1	ERC0	0.000	
23	 C15	2.909	-0.107	1.518	C.2	1	ERC0	0.000	
24	 C16	4.155	0.237	1.027	C.2	1	ERC0	0.000	
25	 C17	4.818	-0.617	0.161	C.2	1	ERC0	0.000	
26	 C18	4.227	-1.820	-0.213	C.2	1	ERC0	0.000	
27	 C19	2.981	-2.161	0.286	C.2	1	ERC0	0.000	
28	 C20	4.207	-3.878	-1.405	C.3	1	ERC0	0.000	
29	 C21	6.589	0.970	0.104	C.3	1	ERC0	0.000	
30	 C22	7.962	1.174	-0.539	C.3	1	ERC0	0.000	
31	 C23	8.545	2.513	-0.082	C.3	1	ERC0	0.000	
32	 HN1	-7.629	2.499	-1.088	 H	1	ERC0	0.000	
33	 HS1	10.559	3.950	-0.361	 H	1	ERC0	0.000	
34	  H2	-4.991	3.260	2.039	 H	1	ERC0	0.000	
35	 HN2	-1.565	-1.160	2.208	 H	1	ERC0	0.000	
36	 HO2	-7.664	0.878	-3.259	 H	1	ERC0	0.000	
37	  H3	-4.101	0.988	1.875	 H	1	ERC0	0.000	
38	 HO3	-3.861	-3.281	0.213	 H	1	ERC0	0.000	
39	  H7	-6.913	-1.912	-2.489	 H	1	ERC0	0.000	
40	  H8	-5.120	-2.715	-1.011	 H	1	ERC0	0.000	
41	 H10	-3.986	-0.962	1.955	 H	1	ERC0	0.000	
42	 H11	-2.447	0.079	0.313	 H	1	ERC0	0.000	
43	H11A	-2.396	-1.445	-0.605	 H	1	ERC0	0.000	
44	 H12	0.012	-1.580	-0.247	 H	1	ERC0	0.000	
45	H12A	-0.040	-0.056	0.672	 H	1	ERC0	0.000	
46	 H13	0.832	-1.232	2.673	 H	1	ERC0	0.000	
47	H13A	0.884	-2.756	1.755	 H	1	ERC0	0.000	
48	 H15	2.393	0.560	2.193	 H	1	ERC0	0.000	
49	 H16	4.611	1.171	1.319	 H	1	ERC0	0.000	
50	 H19	2.522	-3.096	0.001	 H	1	ERC0	0.000	
51	 H20	3.256	-3.649	-1.886	 H	1	ERC0	0.000	
52	H20A	4.830	-4.455	-2.088	 H	1	ERC0	0.000	
53	H20B	4.026	-4.459	-0.500	 H	1	ERC0	0.000	
54	 H21	5.922	1.779	-0.197	 H	1	ERC0	0.000	
55	H21A	6.692	0.970	1.189	 H	1	ERC0	0.000	
56	 H22	8.628	0.366	-0.238	 H	1	ERC0	0.000	
57	H22A	7.858	1.175	-1.624	 H	1	ERC0	0.000	
58	 H23	8.649	2.513	1.003	 H	1	ERC0	0.000	
59	H23A	7.879	3.322	-0.383	 H	1	ERC0	0.000	
@<TRIPOS>BOND
1 1 2 1
2 1 3 2
3 1 5 1
4 2 12 1
5 4 31 1
6 5 8 2
7 6 19 1
8 6 20 1
9 7 14 1
10 8 10 1
11 9 18 1
12 10 12 2
13 10 17 1
14 11 26 1
15 11 28 1
16 12 14 1
17 13 25 1
18 13 29 1
19 14 15 2
20 15 16 1
21 16 17 2
22 17 18 1
23 18 19 1
24 20 21 1
25 21 22 1
26 22 23 2
27 22 27 1
28 23 24 1
29 24 25 2
30 25 26 1
31 26 27 2
32 29 30 1
33 30 31 1
34 2 32 1
35 4 33 1
36 5 34 1
37 6 35 1
38 7 36 1
39 8 37 1
40 9 38 1
41 15 39 1
42 16 40 1
43 18 41 1
44 19 42 1
45 19 43 1
46 20 44 1
47 20 45 1
48 21 46 1
49 21 47 1
50 23 48 1
51 24 49 1
52 27 50 1
53 28 51 1
54 28 52 1
55 28 53 1
56 29 54 1
57 29 55 1
58 30 56 1
59 30 57 1
60 31 58 1
61 31 59 1
@<TRIPOS>SUBSTRUCTURE
1	ERC0	1	GROUP	1 ****	ERC
