# created with PyMOL 2.3.5
@<TRIPOS>MOLECULE
NH2
3 2 1                   
SMALL
USER_CHARGES
@<TRIPOS>ATOM
1	   N	0.000	0.000	0.000	N.3	1	NH20	0.000	
2	 HN1	-0.385	-0.545	-0.771	 H	1	NH20	0.000	
3	 HN2	1.020	0.000	0.000	 H	1	NH20	0.000	
@<TRIPOS>BOND
1 1 2 1
2 1 3 1
@<TRIPOS>SUBSTRUCTURE
1	NH20	1	GROUP	1 ****	NH2
