# created with PyMOL 2.3.5
@<TRIPOS>MOLECULE
A8X
49 52 1 0 0
SMALL
USER_CHARGES


@<TRIPOS>ATOM
      1 F           4.9800   -3.7220   -0.7010 F         1 A8X1        0.0000
      2 C11        -0.3220    2.4080   -0.3030 C.3       1 A8X1        0.0000
      3 C12         0.8540    1.4490   -0.0800 C.3       1 A8X1        0.0000
      4 C16         4.6260   -2.4560   -0.3930 C.2       1 A8X1        0.0000
      5 C15         3.7280   -2.2180    0.6340 C.2       1 A8X1        0.0000
      6 C14         3.3670   -0.9210    0.9490 C.2       1 A8X1        0.0000
      7 C17         5.1650   -1.3940   -1.0990 C.2       1 A8X1        0.0000
      8 C18         4.8020   -0.0990   -0.7830 C.2       1 A8X1        0.0000
      9 C13         3.9010    0.1380    0.2380 C.2       1 A8X1        0.0000
     10 S           3.4380    1.7900    0.6400 S.O2      1 A8X1        0.0000
     11 O2          2.9930    1.7650    1.9890 O.2       1 A8X1        0.0000
     12 O3          4.4950    2.6240    0.1850 O.2       1 A8X1        0.0000
     13 N1          2.1150    2.1660   -0.2820 N.3       1 A8X1        0.0000
     14 C19         0.7590    0.2900   -1.0770 C.3       1 A8X1        0.0000
     15 C20        -0.4290   -0.6050   -0.7060 C.3       1 A8X1        0.0000
     16 C3         -1.6500    0.2660   -0.5220 C.2       1 A8X1        0.0000
     17 C4         -1.5960    1.6040   -0.3440 C.2       1 A8X1        0.0000
     18 C5         -2.9610    2.0700   -0.2080 C.2       1 A8X1        0.0000
     19 C10        -3.7810    0.9170   -0.3190 C.2       1 A8X1        0.0000
     20 C9         -5.1670    1.0220   -0.2310 C.2       1 A8X1        0.0000
     21 C8         -5.6880    2.2890   -0.0320 C.2       1 A8X1        0.0000
     22 C7         -4.8840    3.4110    0.0770 C.2       1 A8X1        0.0000
     23 C6         -3.5150    3.3380   -0.0080 C.2       1 A8X1        0.0000
     24 N          -2.9540   -0.1530   -0.5070 N.pl3     1 A8X1        0.0000
     25 C2         -3.3960   -1.5400   -0.6690 C.3       1 A8X1        0.0000
     26 C1         -3.4720   -2.2140    0.7020 C.3       1 A8X1        0.0000
     27 C          -3.9260   -3.6420    0.5360 C.2       1 A8X1        0.0000
     28 O          -4.1640   -4.0750   -0.5670 O.co2     1 A8X1        0.0000
     29 O1         -4.0660   -4.4310    1.6120 O.3       1 A8X1        0.0000
     30 H112       -0.3685    3.1283    0.5138 H         1 A8X1        0.0000
     31 H113       -0.1908    2.9345   -1.2483 H         1 A8X1        0.0000
     32 H12         0.8167    1.0581    0.9368 H         1 A8X1        0.0000
     33 H15         3.3099   -3.0450    1.1886 H         1 A8X1        0.0000
     34 H14         2.6677   -0.7349    1.7507 H         1 A8X1        0.0000
     35 H17         5.8693   -1.5779   -1.8968 H         1 A8X1        0.0000
     36 H18         5.2227    0.7290   -1.3343 H         1 A8X1        0.0000
     37 HN1         2.1776    2.8898   -0.9837 H         1 A8X1        0.0000
     38 H192        0.6157    0.6861   -2.0823 H         1 A8X1        0.0000
     39 H193        1.6786   -0.2942   -1.0441 H         1 A8X1        0.0000
     40 H202       -0.2134   -1.1354    0.2215 H         1 A8X1        0.0000
     41 H203       -0.6093   -1.3238   -1.5053 H         1 A8X1        0.0000
     42 H9         -5.8057    0.1551   -0.3142 H         1 A8X1        0.0000
     43 H8         -6.7591    2.4064    0.0408 H         1 A8X1        0.0000
     44 H7         -5.3478    4.3737    0.2338 H         1 A8X1        0.0000
     45 H6         -2.8956    4.2188    0.0757 H         1 A8X1        0.0000
     46 H22        -4.3806   -1.5553   -1.1364 H         1 A8X1        0.0000
     47 H23        -2.6863   -2.0764   -1.2989 H         1 A8X1        0.0000
     48 H13        -4.1824   -1.6779    1.3313 H         1 A8X1        0.0000
     49 H16        -2.4877   -2.1977    1.1700 H         1 A8X1        0.0000
@<TRIPOS>BOND
     1    7    8 2
     2    4    7 1
     3    8    9 1
     4   10   12 2
     5    1    4 1
     6    4    5 2
     7    9   10 1
     8    6    9 2
     9   10   13 1
    10   10   11 2
    11    3   13 1
    12    5    6 1
    13    3   14 1
    14   14   15 1
    15    2    3 1
    16    2   17 1
    17   15   16 1
    18   16   17 2
    19   17   18 1
    20   16   24 1
    21   24   25 1
    22   25   26 1
    23   18   23 2
    24   18   19 1
    25   19   24 1
    26   22   23 1
    27   26   27 1
    28   19   20 2
    29   27   28 2
    30   27   29 1
    31   21   22 2
    32   20   21 1
    33   30    2 1
    34   31    2 1
    35   32    3 1
    36   33    5 1
    37   34    6 1
    38   35    7 1
    39   36    8 1
    40   37   13 1
    41   38   14 1
    42   39   14 1
    43   40   15 1
    44   41   15 1
    45   42   20 1
    46   43   21 1
    47   44   22 1
    48   45   23 1
    49   46   25 1
    50   47   25 1
    51   48   26 1
    52   49   26 1
@<TRIPOS>SUBSTRUCTURE
     1 A8X1        1 RESIDUE           4 A     A8X     0 ROOT
