# created with PyMOL 2.3.5
@<TRIPOS>MOLECULE
EDT
36 35 1                 
SMALL
USER_CHARGES
@<TRIPOS>ATOM
1	 O20	1.901	-2.478	3.856	O.3	1	EDT0	0.000	
2	  C5	1.284	-1.369	3.417	C.2	1	EDT0	0.000	
3	 O19	1.227	-0.390	4.123	O.co2	1	EDT0	0.000	
4	  C4	0.663	-1.346	2.044	C.3	1	EDT0	0.000	
5	  N3	0.056	-0.030	1.804	N.3	1	EDT0	0.000	
6	  C2	-1.063	0.096	2.745	C.3	1	EDT0	0.000	
7	  C1	-1.470	1.543	2.851	C.2	1	EDT0	0.000	
8	 O18	-0.864	2.387	2.235	O.co2	1	EDT0	0.000	
9	 O17	-2.506	1.894	3.629	O.3	1	EDT0	0.000	
10	  C6	-0.527	-0.074	0.456	C.3	1	EDT0	0.000	
11	  C7	0.592	-0.170	-0.581	C.3	1	EDT0	0.000	
12	  N8	0.019	-0.071	-1.930	N.3	1	EDT0	0.000	
13	  C9	1.141	-0.171	-2.873	C.3	1	EDT0	0.000	
14	 C10	1.892	1.135	-2.900	C.2	1	EDT0	0.000	
15	 O16	2.907	1.308	-3.761	O.3	1	EDT0	0.000	
16	 O15	1.580	2.026	-2.146	O.co2	1	EDT0	0.000	
17	 C11	-0.805	-1.271	-2.127	C.3	1	EDT0	0.000	
18	 C12	-1.725	-1.060	-3.302	C.2	1	EDT0	0.000	
19	 O13	-1.697	-0.018	-3.912	O.co2	1	EDT0	0.000	
20	 O14	-2.575	-2.031	-3.671	O.3	1	EDT0	0.000	
21	 H20	2.300	-2.493	4.737	 H	1	EDT0	0.000	
22	H041	1.432	-1.533	1.294	 H	1	EDT0	0.000	
23	H042	-0.103	-2.117	1.979	 H	1	EDT0	0.000	
24	H021	-1.907	-0.493	2.387	 H	1	EDT0	0.000	
25	H022	-0.756	-0.267	3.726	 H	1	EDT0	0.000	
26	 H17	-2.767	2.822	3.696	 H	1	EDT0	0.000	
27	H061	-1.177	-0.944	0.371	 H	1	EDT0	0.000	
28	H062	-1.107	0.831	0.282	 H	1	EDT0	0.000	
29	H071	1.302	0.642	-0.427	 H	1	EDT0	0.000	
30	H072	1.106	-1.126	-0.473	 H	1	EDT0	0.000	
31	H091	1.812	-0.969	-2.557	 H	1	EDT0	0.000	
32	H092	0.759	-0.391	-3.870	 H	1	EDT0	0.000	
33	 H16	3.389	2.146	-3.778	 H	1	EDT0	0.000	
34	H111	-0.159	-2.128	-2.320	 H	1	EDT0	0.000	
35	H112	-1.397	-1.456	-1.231	 H	1	EDT0	0.000	
36	 H14	-3.165	-1.896	-4.425	 H	1	EDT0	0.000	
@<TRIPOS>BOND
1 1 2 1
2 1 21 1
3 2 3 2
4 2 4 1
5 4 5 1
6 4 22 1
7 4 23 1
8 5 6 1
9 5 10 1
10 6 7 1
11 6 24 1
12 6 25 1
13 7 8 2
14 7 9 1
15 9 26 1
16 10 11 1
17 10 27 1
18 10 28 1
19 11 12 1
20 11 29 1
21 11 30 1
22 12 13 1
23 12 17 1
24 13 14 1
25 13 31 1
26 13 32 1
27 14 15 1
28 14 16 2
29 15 33 1
30 17 18 1
31 17 34 1
32 17 35 1
33 18 19 2
34 18 20 1
35 20 36 1
@<TRIPOS>SUBSTRUCTURE
1	EDT0	1	GROUP	1 ****	EDT
