@<TRIPOS>MOLECULE
UN1
29 30 1 0 0
SMALL
NO_CHARGES


@<TRIPOS>ATOM
      1 C0         97.8240  102.4580   96.2240 C.3       1 UN10        0.0000
      2 N0         98.0920  103.8860   96.2180 N.ar      1 UN10        0.0000
      3 C1         97.2050  104.8850   95.8800 C.ar      1 UN10        0.0000
      4 C2         97.8360  106.0870   95.9740 C.ar      1 UN10        0.0000
      5 C3         97.2000  107.4490   95.7690 C.3       1 UN10        0.0000
      6 C4         96.7420  107.5900   94.3080 C.3       1 UN10        0.0000
      7 N1         95.5150  106.8260   94.0080 N.4       1 UN10        0.0000
      8 C5         99.1680  105.8410   96.3990 C.ar      1 UN10        0.0000
      9 C6        100.2750  106.6600   96.7010 C.ar      1 UN10        0.0000
     10 C7        101.4370  106.0600   97.1610 C.ar      1 UN10        0.0000
     11 O0        102.5230  106.8240   97.4650 O.3       1 UN10        0.0000
     12 C8        101.5440  104.6650   97.3390 C.ar      1 UN10        0.0000
     13 C9        100.4720  103.8520   97.0280 C.ar      1 UN10        0.0000
     14 C10        99.2990  104.4640   96.5580 C.ar      1 UN10        0.0000
     15 H0         96.7570  102.3290   96.2880 H         1 UN10        0.0000
     16 H1         98.3170  102.0320   97.0860 H         1 UN10        0.0000
     17 H2         98.2240  102.0510   95.3070 H         1 UN10        0.0000
     18 H3         96.1980  104.6660   95.6420 H         1 UN10        0.0000
     19 H4         97.9340  108.2250   95.9830 H         1 UN10        0.0000
     20 H5         96.3600  107.5760   96.4530 H         1 UN10        0.0000
     21 H6         97.5570  107.2840   93.6470 H         1 UN10        0.0000
     22 H7         96.5410  108.6500   94.1320 H         1 UN10        0.0000
     23 H8         95.6280  105.8300   94.1300 H         1 UN10        0.0000
     24 H9         95.1160  107.0110   93.1060 H         1 UN10        0.0000
     25 H10        94.7860  107.0650   94.6970 H         1 UN10        0.0000
     26 H11       100.2220  107.7110   96.5990 H         1 UN10        0.0000
     27 H12       103.1430  106.2820   97.9930 H         1 UN10        0.0000
     28 H13       102.4370  104.2440   97.7110 H         1 UN10        0.0000
     29 H14       100.5270  102.8020   97.1520 H         1 UN10        0.0000
@<TRIPOS>BOND
     1    1    2 1
     2    1   15 1
     3    1   16 1
     4    1   17 1
     5    2    3 ar
     6    2   14 ar
     7    3    4 ar
     8    3   18 1
     9    4    5 1
    10    4    8 ar
    11    5    6 1
    12    5   19 1
    13    5   20 1
    14    6    7 1
    15    6   21 1
    16    6   22 1
    17    7   23 1
    18    7   24 1
    19    7   25 1
    20    8    9 ar
    21    8   14 ar
    22    9   10 ar
    23    9   26 1
    24   10   11 1
    25   10   12 ar
    26   11   27 1
    27   12   13 ar
    28   12   28 1
    29   13   14 ar
    30   13   29 1
@<TRIPOS>SUBSTRUCTURE
     1 UN10        1 RESIDUE           4 L     UN1     0 ROOT
