@<TRIPOS>MOLECULE
UN1
29 30 1 0 0
SMALL
NO_CHARGES


@<TRIPOS>ATOM
      1 C0         97.8160  102.4590   96.2170 C.3       1 UN10        0.0000
      2 N0         98.0890  103.8850   96.2150 N.ar      1 UN10        0.0000
      3 C1         97.2040  104.8850   95.8790 C.ar      1 UN10        0.0000
      4 C2         97.8370  106.0860   95.9750 C.ar      1 UN10        0.0000
      5 C3         97.2010  107.4490   95.7690 C.3       1 UN10        0.0000
      6 C4         96.7420  107.5900   94.3080 C.3       1 UN10        0.0000
      7 N1         95.5150  106.8260   94.0080 N.4       1 UN10        0.0000
      8 C5         99.1680  105.8370   96.3990 C.ar      1 UN10        0.0000
      9 C6        100.2760  106.6550   96.7030 C.ar      1 UN10        0.0000
     10 C7        101.4370  106.0530   97.1620 C.ar      1 UN10        0.0000
     11 O0        102.5230  106.8170   97.4670 O.3       1 UN10        0.0000
     12 C8        101.5430  104.6580   97.3370 C.ar      1 UN10        0.0000
     13 C9        100.4720  103.8450   97.0240 C.ar      1 UN10        0.0000
     14 C10        99.2980  104.4580   96.5560 C.ar      1 UN10        0.0000
     15 H0         96.7470  102.3340   96.2800 H         1 UN10        0.0000
     16 H1         98.3050  102.0330   97.0810 H         1 UN10        0.0000
     17 H2         98.2160  102.0530   95.3000 H         1 UN10        0.0000
     18 H3         96.1960  104.6680   95.6400 H         1 UN10        0.0000
     19 H4         97.9360  108.2240   95.9830 H         1 UN10        0.0000
     20 H5         96.3620  107.5760   96.4530 H         1 UN10        0.0000
     21 H6         97.5570  107.2850   93.6470 H         1 UN10        0.0000
     22 H7         96.5410  108.6500   94.1330 H         1 UN10        0.0000
     23 H8         95.6270  105.8300   94.1280 H         1 UN10        0.0000
     24 H9         95.1160  107.0130   93.1070 H         1 UN10        0.0000
     25 H10        94.7860  107.0640   94.6980 H         1 UN10        0.0000
     26 H11       100.2230  107.7060   96.6020 H         1 UN10        0.0000
     27 H12       103.1450  106.2710   97.9890 H         1 UN10        0.0000
     28 H13       102.4370  104.2350   97.7070 H         1 UN10        0.0000
     29 H14       100.5320  102.7930   97.1440 H         1 UN10        0.0000
@<TRIPOS>BOND
     1    1    2 1
     2    1   15 1
     3    1   16 1
     4    1   17 1
     5    2    3 ar
     6    2   14 ar
     7    3    4 ar
     8    3   18 1
     9    4    5 1
    10    4    8 ar
    11    5    6 1
    12    5   19 1
    13    5   20 1
    14    6    7 1
    15    6   21 1
    16    6   22 1
    17    7   23 1
    18    7   24 1
    19    7   25 1
    20    8    9 ar
    21    8   14 ar
    22    9   10 ar
    23    9   26 1
    24   10   11 1
    25   10   12 ar
    26   11   27 1
    27   12   13 ar
    28   12   28 1
    29   13   14 ar
    30   13   29 1
@<TRIPOS>SUBSTRUCTURE
     1 UN10        1 RESIDUE           4 L     UN1     0 ROOT
