# created with PyMOL 2.3.5
@<TRIPOS>MOLECULE
BOG
48 48 1                 
SMALL
USER_CHARGES
@<TRIPOS>ATOM
1	  C1	-0.643	-0.195	-1.766	C.3	1	BOG0	0.000	
2	  O1	-1.239	0.229	-0.538	O.3	1	BOG0	0.000	
3	  C2	-1.534	0.226	-2.936	C.3	1	BOG0	0.000	
4	  O2	-2.831	-0.352	-2.783	O.3	1	BOG0	0.000	
5	  C3	-0.904	-0.264	-4.245	C.3	1	BOG0	0.000	
6	  O3	-1.642	0.246	-5.357	O.3	1	BOG0	0.000	
7	  C4	0.541	0.239	-4.312	C.3	1	BOG0	0.000	
8	  O4	1.195	-0.327	-5.449	O.3	1	BOG0	0.000	
9	  C5	1.275	-0.182	-3.037	C.3	1	BOG0	0.000	
10	  O5	0.644	0.402	-1.900	O.3	1	BOG0	0.000	
11	  C6	2.729	0.287	-3.110	C.3	1	BOG0	0.000	
12	  O6	3.419	-0.111	-1.923	O.3	1	BOG0	0.000	
13	 C1'	-0.368	-0.194	0.511	C.3	1	BOG0	0.000	
14	 C2'	-0.951	0.231	1.860	C.3	1	BOG0	0.000	
15	 C3'	-0.018	-0.221	2.985	C.3	1	BOG0	0.000	
16	 C4'	-0.601	0.204	4.334	C.3	1	BOG0	0.000	
17	 C5'	0.331	-0.249	5.459	C.3	1	BOG0	0.000	
18	 C6'	-0.251	0.176	6.808	C.3	1	BOG0	0.000	
19	 C7'	0.681	-0.276	7.932	C.3	1	BOG0	0.000	
20	 C8'	0.098	0.149	9.281	C.3	1	BOG0	0.000	
21	  H1	-0.540	-1.281	-1.762	 H	1	BOG0	0.000	
22	  H2	-1.619	1.312	-2.958	 H	1	BOG0	0.000	
23	 HO2	-3.190	-0.017	-1.950	 H	1	BOG0	0.000	
24	  H3	-0.913	-1.354	-4.270	 H	1	BOG0	0.000	
25	 HO3	-2.543	-0.094	-5.275	 H	1	BOG0	0.000	
26	  H4	0.545	1.326	-4.392	 H	1	BOG0	0.000	
27	 HO4	0.701	-0.036	-6.228	 H	1	BOG0	0.000	
28	  H5	1.250	-1.268	-2.947	 H	1	BOG0	0.000	
29	 H61	3.213	-0.158	-3.978	 H	1	BOG0	0.000	
30	 H62	2.756	1.373	-3.197	 H	1	BOG0	0.000	
31	 HO6	4.329	0.204	-2.010	 H	1	BOG0	0.000	
32	H1'1	0.611	0.264	0.378	 H	1	BOG0	0.000	
33	H1'2	-0.268	-1.279	0.485	 H	1	BOG0	0.000	
34	H2'1	-1.930	-0.226	1.994	 H	1	BOG0	0.000	
35	H2'2	-1.051	1.316	1.886	 H	1	BOG0	0.000	
36	H3'1	0.961	0.236	2.852	 H	1	BOG0	0.000	
37	H3'2	0.081	-1.307	2.959	 H	1	BOG0	0.000	
38	H4'1	-1.581	-0.254	4.467	 H	1	BOG0	0.000	
39	H4'2	-0.701	1.289	4.360	 H	1	BOG0	0.000	
40	H5'1	1.311	0.209	5.325	 H	1	BOG0	0.000	
41	H5'2	0.431	-1.334	5.433	 H	1	BOG0	0.000	
42	H6'1	-1.231	-0.281	6.941	 H	1	BOG0	0.000	
43	H6'2	-0.351	1.261	6.834	 H	1	BOG0	0.000	
44	H7'1	1.661	0.181	7.799	 H	1	BOG0	0.000	
45	H7'2	0.781	-1.361	7.906	 H	1	BOG0	0.000	
46	H8'1	0.763	-0.173	10.083	 H	1	BOG0	0.000	
47	H8'2	-0.001	1.234	9.308	 H	1	BOG0	0.000	
48	H8'3	-0.881	-0.309	9.415	 H	1	BOG0	0.000	
@<TRIPOS>BOND
1 1 2 1
2 1 3 1
3 1 10 1
4 1 21 1
5 2 13 1
6 3 4 1
7 3 5 1
8 3 22 1
9 4 23 1
10 5 6 1
11 5 7 1
12 5 24 1
13 6 25 1
14 7 8 1
15 7 9 1
16 7 26 1
17 8 27 1
18 9 10 1
19 9 11 1
20 9 28 1
21 11 12 1
22 11 29 1
23 11 30 1
24 12 31 1
25 13 14 1
26 13 32 1
27 13 33 1
28 14 15 1
29 14 34 1
30 14 35 1
31 15 16 1
32 15 36 1
33 15 37 1
34 16 17 1
35 16 38 1
36 16 39 1
37 17 18 1
38 17 40 1
39 17 41 1
40 18 19 1
41 18 42 1
42 18 43 1
43 19 20 1
44 19 44 1
45 19 45 1
46 20 46 1
47 20 47 1
48 20 48 1
@<TRIPOS>SUBSTRUCTURE
1	BOG0	1	GROUP	1 ****	BOG
