# created with PyMOL 2.3.5
@<TRIPOS>MOLECULE
VT5
43 45 1 0 0
SMALL
USER_CHARGES


@<TRIPOS>ATOM
      1 C          -4.0290    0.9410   -1.9840 C.3       1 VT51        0.0000
      2 C1         -3.9670   -0.1300   -0.9260 C.2       1 VT51        0.0000
      3 O          -4.9910   -0.5750   -0.4520 O.2       1 VT51        0.0000
      4 C2         -2.7140   -0.6160   -0.4840 C.2       1 VT51        0.0000
      5 C3         -2.5020   -1.6440    0.3750 C.2       1 VT51        0.0000
      6 C4         -1.0460   -1.8230    0.5660 C.2       1 VT51        0.0000
      7 O1         -0.5350   -2.6640    1.2790 O.2       1 VT51        0.0000
      8 N          -0.3720   -0.9180   -0.1660 N.pl3     1 VT51        0.0000
      9 C5         -1.3530   -0.0960   -0.8850 C.3       1 VT51        0.0000
     10 C6         -1.2160    1.3700   -0.4690 C.3       1 VT51        0.0000
     11 C11        -1.3490    1.4840    1.0510 C.3       1 VT51        0.0000
     12 C10        -1.2120    2.9500    1.4670 C.3       1 VT51        0.0000
     13 C9          0.1580    3.4770    1.0340 C.3       1 VT51        0.0000
     14 C8          0.2910    3.3630   -0.4860 C.3       1 VT51        0.0000
     15 C7          0.1540    1.8970   -0.9010 C.3       1 VT51        0.0000
     16 C12         1.0190   -0.7860   -0.2340 C.2       1 VT51        0.0000
     17 C13         1.6980   -1.1710   -1.3830 C.2       1 VT51        0.0000
     18 C14         3.0720   -1.0390   -1.4480 C.2       1 VT51        0.0000
     19 C15         3.7720   -0.5260   -0.3700 C.2       1 VT51        0.0000
     20 C16         3.0990   -0.1420    0.7760 C.2       1 VT51        0.0000
     21 C17         1.7240   -0.2650    0.8460 C.2       1 VT51        0.0000
     22 F           1.0660    0.1090    1.9650 F         1 VT51        0.0000
     23 CL          5.4980   -0.3630   -0.4570 Cl        1 VT51        0.0000
     24 O2         -3.4670   -2.3850    0.9640 O.3       1 VT51        0.0000
     25 H1         -5.0680    1.1190   -2.2600 H         1 VT51        0.0000
     26 H2         -3.5940    1.8620   -1.5950 H         1 VT51        0.0000
     27 H3         -3.4690    0.6180   -2.8620 H         1 VT51        0.0000
     28 H4         -1.2090   -0.1960   -1.9610 H         1 VT51        0.0000
     29 H5         -1.9990    1.9580   -0.9470 H         1 VT51        0.0000
     30 H6         -2.3250    1.1090    1.3590 H         1 VT51        0.0000
     31 H7         -0.5660    0.8960    1.5300 H         1 VT51        0.0000
     32 H8         -1.9950    3.5380    0.9880 H         1 VT51        0.0000
     33 H9         -1.3070    3.0310    2.5490 H         1 VT51        0.0000
     34 H10         0.2550    4.5210    1.3300 H         1 VT51        0.0000
     35 H11         0.9410    2.8890    1.5130 H         1 VT51        0.0000
     36 H12        -0.4920    3.9510   -0.9640 H         1 VT51        0.0000
     37 H13         1.2670    3.7380   -0.7940 H         1 VT51        0.0000
     38 H14         0.9370    1.3090   -0.4230 H         1 VT51        0.0000
     39 H15         0.2490    1.8160   -1.9840 H         1 VT51        0.0000
     40 H16         1.1530   -1.5720   -2.2240 H         1 VT51        0.0000
     41 H17         3.6000   -1.3380   -2.3410 H         1 VT51        0.0000
     42 H18         3.6480    0.2580    1.6160 H         1 VT51        0.0000
     43 H19        -3.1290   -3.0780    1.5480 H         1 VT51        0.0000
@<TRIPOS>BOND
     1   19   23 1
     2   19   20 2
     3   20   21 1
     4   18   19 1
     5   21   22 1
     6   16   21 2
     7   13   14 1
     8   14   15 1
     9   17   18 2
    10   12   13 1
    11   16   17 1
    12    8   16 1
    13   11   12 1
    14   10   15 1
    15    6    7 2
    16   10   11 1
    17    9   10 1
    18    6    8 1
    19    8    9 1
    20    5    6 1
    21    4    9 1
    22    4    5 2
    23    5   24 1
    24    2    4 1
    25    2    3 2
    26    1    2 1
    27    1   25 1
    28    1   26 1
    29    1   27 1
    30    9   28 1
    31   10   29 1
    32   11   30 1
    33   11   31 1
    34   12   32 1
    35   12   33 1
    36   13   34 1
    37   13   35 1
    38   14   36 1
    39   14   37 1
    40   15   38 1
    41   15   39 1
    42   17   40 1
    43   18   41 1
    44   20   42 1
    45   24   43 1
@<TRIPOS>SUBSTRUCTURE
     1 VT51        1 RESIDUE           4 A     VT5     0 ROOT
