# created with PyMOL 2.3.5
@<TRIPOS>MOLECULE
GOL
14 13 1                 
SMALL
USER_CHARGES
@<TRIPOS>ATOM
1	  C1	-1.249	-0.665	0.295	C.3	1	GOL0	0.000	
2	  O1	-2.413	-0.087	-0.300	O.3	1	GOL0	0.000	
3	  C2	0.000	0.034	-0.245	C.3	1	GOL0	0.000	
4	  O2	0.000	1.400	0.174	O.3	1	GOL0	0.000	
5	  C3	1.249	-0.665	0.295	C.3	1	GOL0	0.000	
6	  O3	2.413	-0.087	-0.300	O.3	1	GOL0	0.000	
7	 H11	-1.295	-0.543	1.377	 H	1	GOL0	0.000	
8	 H12	-1.206	-1.727	0.051	 H	1	GOL0	0.000	
9	 HO1	-3.244	-0.483	-0.003	 H	1	GOL0	0.000	
10	  H2	-0.000	-0.012	-1.334	 H	1	GOL0	0.000	
11	 HO2	0.000	1.517	1.134	 H	1	GOL0	0.000	
12	 H31	1.295	-0.543	1.377	 H	1	GOL0	0.000	
13	 H32	1.206	-1.727	0.051	 H	1	GOL0	0.000	
14	 HO3	3.244	-0.483	-0.003	 H	1	GOL0	0.000	
@<TRIPOS>BOND
1 1 2 1
2 1 3 1
3 1 7 1
4 1 8 1
5 2 9 1
6 3 4 1
7 3 5 1
8 3 10 1
9 4 11 1
10 5 6 1
11 5 12 1
12 5 13 1
13 6 14 1
@<TRIPOS>SUBSTRUCTURE
1	GOL0	1	GROUP	1 ****	GOL
