# created with PyMOL 2.3.5
@<TRIPOS>MOLECULE
6DZ
46 49 1                 
SMALL
USER_CHARGES
@<TRIPOS>ATOM
1	 N12	-3.605	1.085	-0.131	N.2	1	6DZ0	0.000	
2	 C13	-4.456	0.056	-0.032	C.2	1	6DZ0	0.000	
3	 C20	-6.644	1.298	-0.281	C.2	1	6DZ0	0.000	
4	 C21	-8.004	0.928	-0.288	C.2	1	6DZ0	0.000	
5	 C22	-8.051	-0.407	-0.111	C.2	1	6DZ0	0.000	
6	 C24	5.038	-0.337	-0.858	C.3	1	6DZ0	0.000	
7	 C01	8.690	-1.072	-0.300	C.3	1	6DZ0	0.000	
8	 N02	7.452	-0.296	-0.452	N.3	1	6DZ0	0.000	
9	 C03	7.254	0.610	0.688	C.3	1	6DZ0	0.000	
10	 C04	6.000	1.455	0.454	C.3	1	6DZ0	0.000	
11	 N05	4.841	0.569	0.282	N.3	1	6DZ0	0.000	
12	 C06	3.603	1.345	0.130	C.3	1	6DZ0	0.000	
13	 C07	2.398	0.404	0.203	C.3	1	6DZ0	0.000	
14	 N08	1.164	1.178	0.051	N.pl3	1	6DZ0	0.000	
15	 C09	-0.059	0.540	0.085	C.2	1	6DZ0	0.000	
16	 N10	-1.166	1.251	-0.054	N.2	1	6DZ0	0.000	
17	 C11	-2.362	0.646	-0.023	C.2	1	6DZ0	0.000	
18	 N14	-3.773	-1.060	0.141	N.2	1	6DZ0	0.000	
19	 N15	-2.418	-0.712	0.151	N.pl3	1	6DZ0	0.000	
20	 C16	-1.260	-1.420	0.290	C.2	1	6DZ0	0.000	
21	 N17	-1.296	-2.779	0.465	N.pl3	1	6DZ0	0.000	
22	 N18	-0.103	-0.784	0.255	N.2	1	6DZ0	0.000	
23	 C19	-5.929	0.155	-0.104	C.2	1	6DZ0	0.000	
24	 O23	-6.796	-0.870	0.003	O.3	1	6DZ0	0.000	
25	 C25	6.292	-1.182	-0.624	C.3	1	6DZ0	0.000	
26	  H1	-6.247	2.295	-0.399	 H	1	6DZ0	0.000	
27	  H2	-8.848	1.590	-0.412	 H	1	6DZ0	0.000	
28	  H3	-8.949	-1.005	-0.068	 H	1	6DZ0	0.000	
29	  H4	4.172	-0.991	-0.957	 H	1	6DZ0	0.000	
30	  H5	5.159	0.248	-1.771	 H	1	6DZ0	0.000	
31	  H6	8.847	-1.684	-1.188	 H	1	6DZ0	0.000	
32	  H7	9.532	-0.391	-0.174	 H	1	6DZ0	0.000	
33	  H8	8.609	-1.716	0.576	 H	1	6DZ0	0.000	
34	 H10	7.134	0.025	1.600	 H	1	6DZ0	0.000	
35	 H11	8.121	1.264	0.788	 H	1	6DZ0	0.000	
36	 H12	5.835	2.107	1.312	 H	1	6DZ0	0.000	
37	 H13	6.132	2.060	-0.443	 H	1	6DZ0	0.000	
38	 H15	3.536	2.084	0.928	 H	1	6DZ0	0.000	
39	 H16	3.609	1.853	-0.835	 H	1	6DZ0	0.000	
40	 H17	2.465	-0.334	-0.595	 H	1	6DZ0	0.000	
41	 H18	2.393	-0.103	1.168	 H	1	6DZ0	0.000	
42	 H19	1.206	2.139	-0.073	 H	1	6DZ0	0.000	
43	 H20	-2.148	-3.242	0.489	 H	1	6DZ0	0.000	
44	 H21	-0.470	-3.278	0.563	 H	1	6DZ0	0.000	
45	 H22	6.161	-1.787	0.273	 H	1	6DZ0	0.000	
46	 H23	6.457	-1.834	-1.482	 H	1	6DZ0	0.000	
@<TRIPOS>BOND
1 9 10 1
2 10 11 1
3 8 9 1
4 7 8 1
5 8 25 1
6 11 12 1
7 12 13 1
8 6 11 1
9 6 25 1
10 13 14 1
11 14 15 1
12 15 16 2
13 15 22 1
14 16 17 1
15 20 22 2
16 1 17 2
17 17 19 1
18 1 2 1
19 19 20 1
20 20 21 1
21 18 19 1
22 2 18 2
23 2 23 1
24 3 23 2
25 23 24 1
26 3 4 1
27 5 24 1
28 4 5 2
29 3 26 1
30 4 27 1
31 5 28 1
32 6 29 1
33 6 30 1
34 7 31 1
35 7 32 1
36 7 33 1
37 9 34 1
38 9 35 1
39 10 36 1
40 10 37 1
41 12 38 1
42 12 39 1
43 13 40 1
44 13 41 1
45 14 42 1
46 21 43 1
47 21 44 1
48 25 45 1
49 25 46 1
@<TRIPOS>SUBSTRUCTURE
1	6DZ0	1	GROUP	1 ****	6DZ
