# created with PyMOL 2.3.5
@<TRIPOS>MOLECULE
AC5
20 20 1                 
SMALL
USER_CHARGES
@<TRIPOS>ATOM
1	   N	0.046	1.416	1.053	N.3	1	AC50	0.000	
2	   O	1.628	-1.443	-0.204	O.co2	1	AC50	0.000	
3	  CA	0.013	0.227	0.191	C.3	1	AC50	0.000	
4	   C	1.412	-0.260	-0.088	C.2	1	AC50	0.000	
5	 CB1	-0.827	-0.890	0.845	C.3	1	AC50	0.000	
6	 CB2	-0.727	0.537	-1.133	C.3	1	AC50	0.000	
7	 OXT	2.417	0.621	-0.208	O.3	1	AC50	0.000	
8	 CG1	-2.247	-0.770	0.263	C.3	1	AC50	0.000	
9	 CG2	-2.218	0.419	-0.728	C.3	1	AC50	0.000	
10	   H	0.569	2.162	0.619	 H	1	AC50	0.000	
11	 HN2	-0.887	1.718	1.289	 H	1	AC50	0.000	
12	HB11	-0.405	-1.865	0.602	 H	1	AC50	0.000	
13	HB12	-0.853	-0.753	1.926	 H	1	AC50	0.000	
14	HB21	-0.499	1.547	-1.476	 H	1	AC50	0.000	
15	HB22	-0.476	-0.197	-1.898	 H	1	AC50	0.000	
16	 HXT	3.297	0.261	-0.387	 H	1	AC50	0.000	
17	HG11	-2.514	-1.687	-0.262	 H	1	AC50	0.000	
18	HG12	-2.962	-0.575	1.062	 H	1	AC50	0.000	
19	HG21	-2.553	1.333	-0.237	 H	1	AC50	0.000	
20	HG22	-2.835	0.205	-1.600	 H	1	AC50	0.000	
@<TRIPOS>BOND
1 1 3 1
2 1 10 1
3 1 11 1
4 2 4 2
5 3 4 1
6 3 5 1
7 3 6 1
8 4 7 1
9 5 8 1
10 5 12 1
11 5 13 1
12 6 9 1
13 6 14 1
14 6 15 1
15 7 16 1
16 8 9 1
17 8 17 1
18 8 18 1
19 9 19 1
20 9 20 1
@<TRIPOS>SUBSTRUCTURE
1	AC50	1	GROUP	1 ****	AC5
