# created with PyMOL 2.3.5
@<TRIPOS>MOLECULE
1KS
61 65 1 0 0
SMALL
USER_CHARGES


@<TRIPOS>ATOM
      1 F1         -5.0970   -4.4530    0.0960 F         1 1KS1        0.0000
      2 C1         -4.6350   -3.1860    0.1780 C.2       1 1KS1        0.0000
      3 O1         -3.5950    1.5380    1.3100 O.2       1 1KS1        0.0000
      4 N1         -2.2670    1.2390   -0.4450 N.pl3     1 1KS1        0.0000
      5 C10        -1.6740    2.5690   -0.2820 C.3       1 1KS1        0.0000
      6 C11        -0.6710    2.8230   -1.4100 C.3       1 1KS1        0.0000
      7 C12         0.4600    1.7960   -1.3220 C.3       1 1KS1        0.0000
      8 C13         0.1910    1.6220    1.0800 C.3       1 1KS1        0.0000
      9 C14        -0.9480    2.6440    1.0630 C.3       1 1KS1        0.0000
     10 C15         2.2350    1.0840    0.0480 C.2       1 1KS1        0.0000
     11 C16         3.5340    1.6410    0.0830 C.2       1 1KS1        0.0000
     12 C17         4.6320    0.7450    0.1490 C.2       1 1KS1        0.0000
     13 C18         5.9340    1.2470    0.1860 C.2       1 1KS1        0.0000
     14 C19         6.1310    2.5980    0.1590 C.2       1 1KS1        0.0000
     15 C2         -5.5060   -2.1210    0.0080 C.2       1 1KS1        0.0000
     16 F2         -7.2770   -0.1570   -0.3350 F         1 1KS1        0.0000
     17 N2          1.1240    1.9090   -0.0170 N.pl3     1 1KS1        0.0000
     18 C20         5.0540    3.4780    0.0940 C.2       1 1KS1        0.0000
     19 C21         3.7700    3.0190    0.0570 C.2       1 1KS1        0.0000
     20 C22         4.3310   -0.6850    0.1750 C.2       1 1KS1        0.0000
     21 C23         5.4130   -1.6860    0.2430 C.2       1 1KS1        0.0000
     22 C24         6.3170   -1.8460    1.2710 C.2       1 1KS1        0.0000
     23 C25         7.1620   -2.9020    0.9320 C.2       1 1KS1        0.0000
     24 C26         5.0000   -2.8320   -1.9660 C.3       1 1KS1        0.0000
     25 C3         -5.0400   -0.8260    0.0920 C.2       1 1KS1        0.0000
     26 F3         -5.5710    1.1070   -1.1790 F         1 1KS1        0.0000
     27 N3          3.0600   -1.0590    0.1360 N.2       1 1KS1        0.0000
     28 C4         -5.9890    0.3310   -0.0920 C.3       1 1KS1        0.0000
     29 F4         -5.9970    1.1160    1.0660 F         1 1KS1        0.0000
     30 N4          2.0880   -0.2280    0.0720 N.2       1 1KS1        0.0000
     31 C5         -3.6890   -0.5880    0.3480 C.2       1 1KS1        0.0000
     32 N5          6.8030   -3.3670   -0.2380 N.2       1 1KS1        0.0000
     33 C6         -2.8150   -1.6650    0.5190 C.2       1 1KS1        0.0000
     34 N6          5.7040   -2.6310   -0.6980 N.pl3     1 1KS1        0.0000
     35 C7         -3.2930   -2.9550    0.4380 C.2       1 1KS1        0.0000
     36 C8         -3.1840    0.7970    0.4390 C.2       1 1KS1        0.0000
     37 C9         -1.8630    0.3890   -1.5680 C.3       1 1KS1        0.0000
     38 H1         -2.4600    3.3240   -0.3160 H         1 1KS1        0.0000
     39 H2         -1.1730    2.7290   -2.3730 H         1 1KS1        0.0000
     40 H3         -0.2590    3.8280   -1.3110 H         1 1KS1        0.0000
     41 H4          0.0490    0.7930   -1.4350 H         1 1KS1        0.0000
     42 H5          1.1840    1.9840   -2.1150 H         1 1KS1        0.0000
     43 H6          0.7200    1.6830    2.0320 H         1 1KS1        0.0000
     44 H7         -0.2190    0.6200    0.9560 H         1 1KS1        0.0000
     45 H8         -0.5400    3.6460    1.2010 H         1 1KS1        0.0000
     46 H9         -1.6480    2.4220    1.8680 H         1 1KS1        0.0000
     47 H10         6.7770    0.5740    0.2360 H         1 1KS1        0.0000
     48 H11         7.1370    2.9890    0.1880 H         1 1KS1        0.0000
     49 H12        -6.5520   -2.3060   -0.1900 H         1 1KS1        0.0000
     50 H13         5.2390    4.5430    0.0740 H         1 1KS1        0.0000
     51 H14         2.9440    3.7130    0.0070 H         1 1KS1        0.0000
     52 H15         6.3620   -1.2600    2.1770 H         1 1KS1        0.0000
     53 H16         7.9780   -3.2730    1.5330 H         1 1KS1        0.0000
     54 H17         4.1350   -3.4750   -1.8030 H         1 1KS1        0.0000
     55 H18         4.6690   -1.8690   -2.3550 H         1 1KS1        0.0000
     56 H19         5.6710   -3.3020   -2.6850 H         1 1KS1        0.0000
     57 H20        -1.7690   -1.4870    0.7170 H         1 1KS1        0.0000
     58 H21        -2.6190   -3.7890    0.5740 H         1 1KS1        0.0000
     59 H22        -1.0890   -0.3040   -1.2400 H         1 1KS1        0.0000
     60 H23        -2.7250   -0.1730   -1.9270 H         1 1KS1        0.0000
     61 H24        -1.4750    1.0130   -2.3740 H         1 1KS1        0.0000
@<TRIPOS>BOND
     1   23   32 2
     2   32   34 1
     3   16   28 1
     4   28   29 1
     5   24   34 1
     6   22   23 1
     7   21   34 1
     8    1    2 1
     9    2   15 2
    10   15   25 1
    11    4   37 1
    12   25   28 1
    13   26   28 1
    14   27   30 2
    15   20   27 1
    16    2   35 1
    17   21   22 2
    18   20   21 1
    19   25   31 2
    20   10   30 1
    21    8    9 1
    22    5    9 1
    23   12   20 2
    24   33   35 2
    25    4    5 1
    26    4   36 1
    27   31   33 1
    28   31   36 1
    29    8   17 1
    30    5    6 1
    31    3   36 2
    32   10   17 1
    33   10   11 2
    34   11   12 1
    35   12   13 1
    36    7   17 1
    37    6    7 1
    38   11   19 1
    39   13   14 2
    40   18   19 2
    41   14   18 1
    42    5   38 1
    43    6   39 1
    44    6   40 1
    45    7   41 1
    46    7   42 1
    47    8   43 1
    48    8   44 1
    49    9   45 1
    50    9   46 1
    51   13   47 1
    52   14   48 1
    53   15   49 1
    54   18   50 1
    55   19   51 1
    56   22   52 1
    57   23   53 1
    58   24   54 1
    59   24   55 1
    60   24   56 1
    61   33   57 1
    62   35   58 1
    63   37   59 1
    64   37   60 1
    65   37   61 1
@<TRIPOS>SUBSTRUCTURE
     1 1KS1        1 RESIDUE           4 A     1KS     0 ROOT
