@<TRIPOS>MOLECULE
    CSD
   91    91     0     0     0
SMALL
USER_CHARGES


@<TRIPOS>ATOM
      1 X           1.1070  -26.1900  -56.7510 N.4        1 CSD      0.000000
      2 X           0.4830  -25.1070  -55.9780 C.3        1 CSD      0.000000
      3 X           0.3770  -25.5220  -54.5110 C.2        1 CSD      0.000000
      4 X           0.6280  -24.7090  -53.6170 O.2        1 CSD      0.000000
      5 X          -0.9040  -24.7400  -56.5440 C.3        1 CSD      0.000000
      6 X          -1.6160  -23.5460  -55.8900 C.3        1 CSD      0.000000
      7 X          -0.8810  -22.2450  -56.1710 C.3        1 CSD      0.000000
      8 X          -3.0300  -23.4230  -56.3840 C.3        1 CSD      0.000000
      9 X           1.1234  -24.2272  -56.0407 H          1 CSD      0.000000
     10 X          -0.7801  -24.5124  -57.6027 H          1 CSD      0.000000
     11 X          -1.5506  -25.6131  -56.4559 H          1 CSD      0.000000
     12 X          -1.6387  -23.7048  -54.8119 H          1 CSD      0.000000
     13 X          -3.5662  -24.3513  -56.1872 H          1 CSD      0.000000
     14 X          -3.5251  -22.6011  -55.8668 H          1 CSD      0.000000
     15 X          -3.0245  -23.2269  -57.4562 H          1 CSD      0.000000
     16 X           2.0114  -26.4074  -56.3574 H          1 CSD      0.000000
     17 X           1.2196  -25.8966  -57.7109 H          1 CSD      0.000000
     18 X           0.5188  -27.0104  -56.7165 H          1 CSD      0.000000
     19 X           0.1466  -22.3237  -55.8162 H          1 CSD      0.000000
     20 X          -0.8809  -22.0524  -57.2439 H          1 CSD      0.000000
     21 X          -1.3819  -21.4259  -55.6549 H          1 CSD      0.000000
     22 X           0.0250  -26.8060  -54.2720 N.am       2 CSD      0.000000
     23 X          -0.0750  -27.4000  -52.9420 C.3        2 CSD      0.000000
     24 X           1.3200  -27.4950  -52.3200 C.2        2 CSD      0.000000
     25 X           1.4580  -27.3170  -51.1100 O.2        2 CSD      0.000000
     26 X          -0.7520  -28.7840  -53.0210 C.3        2 CSD      0.000000
     27 X          -1.0970  -29.4830  -51.6960 C.3        2 CSD      0.000000
     28 X          -2.1230  -28.6860  -50.8930 C.3        2 CSD      0.000000
     29 X          -1.6380  -30.8750  -51.9480 C.3        2 CSD      0.000000
     30 X          -0.1826  -27.3933  -55.0670 H          2 CSD      0.000000
     31 X          -0.6884  -26.7500  -52.3181 H          2 CSD      0.000000
     32 X          -1.6816  -28.6612  -53.5767 H          2 CSD      0.000000
     33 X          -0.1017  -29.4460  -53.5928 H          2 CSD      0.000000
     34 X          -0.1861  -29.5687  -51.1036 H          2 CSD      0.000000
     35 X          -1.7401  -27.6824  -50.7078 H          2 CSD      0.000000
     36 X          -3.0540  -28.6212  -51.4562 H          2 CSD      0.000000
     37 X          -2.3077  -29.1856  -49.9420 H          2 CSD      0.000000
     38 X          -0.9105  -31.4499  -52.5210 H          2 CSD      0.000000
     39 X          -1.8230  -31.3706  -50.9950 H          2 CSD      0.000000
     40 X          -2.5701  -30.8065  -52.5089 H          2 CSD      0.000000
     41 N           2.3590  -27.7280  -53.1600 N.am       3 CSD      0.000000
     42 CA          3.7560  -27.7760  -52.7250 C.3        3 CSD      0.000000
     43 CB          4.7390  -28.3310  -53.7870 C.3        3 CSD      0.000000
     44 SG          6.4830  -28.2590  -53.1740 S.o        3 CSD      0.000000
     45 C           4.1810  -26.3950  -52.2130 C.2        3 CSD      0.000000
     46 O           4.6720  -26.2940  -51.0890 O.2        3 CSD      0.000000
     47 OD1         7.3440  -27.4600  -54.0280 O.2        3 CSD      0.000000
     48 OD2         7.0300  -29.6980  -53.3640 O.2        3 CSD      0.000000
     49 H           2.1581  -27.8764  -54.1386 H          3 CSD      0.000000
     50 HA          3.7973  -28.4542  -51.8727 H          3 CSD      0.000000
     51 HB2         4.6555  -27.7354  -54.6961 H          3 CSD      0.000000
     52 HB3         4.4794  -29.3658  -54.0105 H          3 CSD      0.000000
     53 Y0          3.9340  -25.3290  -53.0140 N.am       4 CSD      0.000000
     54 X           4.2620  -23.9400  -52.6680 C.3        4 CSD      0.000000
     55 X           3.4470  -23.4550  -51.4600 C.2        4 CSD      0.000000
     56 X           3.9240  -22.5790  -50.7340 O.2        4 CSD      0.000000
     57 X           4.0400  -22.9920  -53.8550 C.3        4 CSD      0.000000
     58 X           5.0530  -23.1820  -54.9920 C.3        4 CSD      0.000000
     59 X           6.4790  -22.8490  -54.5950 C.2        4 CSD      0.000000
     60 X           6.7430  -21.9300  -53.8080 O.2        4 CSD      0.000000
     61 X           7.4350  -23.5320  -55.2070 N.am       4 CSD      0.000000
     62 X           3.4956  -25.5017  -53.9073 H          4 CSD      0.000000
     63 X           5.3176  -23.9007  -52.3991 H          4 CSD      0.000000
     64 X           3.0400  -23.1660  -54.2522 H          4 CSD      0.000000
     65 X           4.1017  -21.9637  -53.4987 H          4 CSD      0.000000
     66 X           5.0188  -24.2229  -55.3138 H          4 CSD      0.000000
     67 X           4.7643  -22.5463  -55.8290 H          4 CSD      0.000000
     68 X           7.1943  -24.2542  -55.8708 H          4 CSD      0.000000
     69 X           8.4048  -23.3305  -55.0098 H          4 CSD      0.000000
     70 X           2.2530  -24.0380  -51.2170 N.am       5 CSD      0.000000
     71 X           1.4620  -23.6940  -50.0400 C.3        5 CSD      0.000000
     72 X           2.1420  -24.2530  -48.7800 C.2        5 CSD      0.000000
     73 X           2.1970  -23.5610  -47.7600 O.2        5 CSD      0.000000
     74 X           0.0200  -24.2040  -50.1650 C.3        5 CSD      0.000000
     75 X          -0.7990  -24.0010  -48.9090 C.ar       5 CSD      0.000000
     76 X          -1.3030  -22.7470  -48.5760 C.ar       5 CSD      0.000000
     77 X          -1.1070  -25.0710  -48.0750 C.ar       5 CSD      0.000000
     78 X          -2.0410  -22.5500  -47.4100 C.ar       5 CSD      0.000000
     79 X          -1.8540  -24.8900  -46.9120 C.ar       5 CSD      0.000000
     80 X          -2.3240  -23.6280  -46.5860 C.ar       5 CSD      0.000000
     81 X          -3.0730  -23.4520  -45.4520 O.3        5 CSD      0.000000
     82 X           1.8997  -24.7277  -51.8647 H          5 CSD      0.000000
     83 X           1.4321  -22.6076  -49.9564 H          5 CSD      0.000000
     84 X           2.5689  -25.2450  -48.7875 H          5 CSD      0.000000
     85 X          -0.4650  -23.6721  -50.9835 H          5 CSD      0.000000
     86 X           0.0427  -25.2678  -50.4017 H          5 CSD      0.000000
     87 X          -1.1187  -21.9105  -49.2338 H          5 CSD      0.000000
     88 X          -0.7608  -26.0608  -48.3335 H          5 CSD      0.000000
     89 X          -2.3907  -21.5619  -47.1498 H          5 CSD      0.000000
     90 X          -2.0656  -25.7304  -46.2675 H          5 CSD      0.000000
     91 X          -3.8661  -23.9902  -45.5056 H          5 CSD      0.000000
@<TRIPOS>BOND
     1    1    2 1
     2    1   16 1
     3    1   17 1
     4    1   18 1
     5    2    3 1
     6    2    5 1
     7    2    9 1
     8    3    4 2
     9    3   22 am
    10    5    6 1
    11    5   10 1
    12    5   11 1
    13    6    7 1
    14    6    8 1
    15    6   12 1
    16    7   19 1
    17    7   20 1
    18    7   21 1
    19    8   13 1
    20    8   14 1
    21    8   15 1
    22   22   23 1
    23   22   30 1
    24   23   24 1
    25   23   26 1
    26   23   31 1
    27   24   25 2
    28   24   41 am
    29   26   27 1
    30   26   32 1
    31   26   33 1
    32   27   28 1
    33   27   29 1
    34   27   34 1
    35   28   35 1
    36   28   36 1
    37   28   37 1
    38   29   38 1
    39   29   39 1
    40   29   40 1
    41   41   42 1
    42   41   49 1
    43   42   43 1
    44   42   45 1
    45   42   50 1
    46   43   44 1
    47   43   51 1
    48   43   52 1
    49   44   47 2
    50   44   48 2
    51   45   46 2
    52   45   53 am
    53   53   54 1
    54   53   62 1
    55   54   55 1
    56   54   57 1
    57   54   63 1
    58   55   56 2
    59   55   70 am
    60   57   58 1
    61   57   64 1
    62   57   65 1
    63   58   59 1
    64   58   66 1
    65   58   67 1
    66   59   60 2
    67   59   61 am
    68   61   68 1
    69   61   69 1
    70   70   71 1
    71   70   82 1
    72   71   72 1
    73   71   74 1
    74   71   83 1
    75   72   73 2
    76   72   84 1
    77   74   75 1
    78   74   85 1
    79   74   86 1
    80   75   76 ar
    81   75   77 ar
    82   76   78 ar
    83   76   87 1
    84   77   79 ar
    85   77   88 1
    86   78   80 ar
    87   78   89 1
    88   79   80 ar
    89   79   90 1
    90   80   81 1
    91   81   91 1
