@<TRIPOS>MOLECULE
    TYS
   64    64     0     0     0
SMALL
USER_CHARGES


@<TRIPOS>ATOM
      1 X         100.9420  123.1570  148.7240 N.4        1 TYS      0.000000
      2 X         102.1990  122.5320  148.3280 C.3        1 TYS      0.000000
      3 X         102.0400  121.8590  146.9670 C.2        1 TYS      0.000000
      4 X         100.9300  121.7540  146.4440 O.2        1 TYS      0.000000
      5 X         102.6500  121.5170  149.3830 C.3        1 TYS      0.000000
      6 X         104.1590  121.3430  149.4260 C.2        1 TYS      0.000000
      7 X         104.8180  121.5310  148.3810 O.2        1 TYS      0.000000
      8 X         104.6870  121.0150  150.5090 O.3        1 TYS      0.000000
      9 X         102.9607  123.3073  148.2447 H          1 TYS      0.000000
     10 X         102.1948  120.5531  149.1556 H          1 TYS      0.000000
     11 X         102.3047  121.8484  150.3623 H          1 TYS      0.000000
     12 X         105.6371  120.9412  150.3929 H          1 TYS      0.000000
     13 X         100.6594  123.8223  148.0186 H          1 TYS      0.000000
     14 X         100.2298  122.4476  148.8220 H          1 TYS      0.000000
     15 X         101.0661  123.6336  149.6058 H          1 TYS      0.000000
     16 N         103.1530  121.4090  146.3960 N.am       2 TYS      0.000000
     17 CA        103.1340  120.7440  145.1050 C.3        2 TYS      0.000000
     18 CB        104.5310  120.7270  144.4930 C.3        2 TYS      0.000000
     19 CG        104.4170  120.9720  142.9930 C.ar       2 TYS      0.000000
     20 CD1       103.8470  122.1490  142.5390 C.ar       2 TYS      0.000000
     21 CD2       104.8950  120.0310  142.0940 C.ar       2 TYS      0.000000
     22 CE1       103.7440  122.3840  141.1770 C.ar       2 TYS      0.000000
     23 CE2       104.7940  120.2670  140.7300 C.ar       2 TYS      0.000000
     24 CZ        104.2140  121.4420  140.2730 C.ar       2 TYS      0.000000
     25 OH        104.1120  121.6990  138.8980 O.3        2 TYS      0.000000
     26 S         103.3330  120.5850  137.9640 S.o2       2 TYS      0.000000
     27 O1        102.4630  121.2520  136.9290 O.2        2 TYS      0.000000
     28 O2        104.3330  119.6490  137.3320 O.co2      2 TYS      0.000000
     29 O3        102.2970  119.8300  138.7530 O.co2      2 TYS      0.000000
     30 C         102.6040  119.3230  145.2620 C.2        2 TYS      0.000000
     31 O         103.3960  118.3470  145.3350 O.2        2 TYS      0.000000
     32 H         104.0349  121.5328  146.8725 H          2 TYS      0.000000
     33 HA        102.4681  121.2932  144.4394 H          2 TYS      0.000000
     34 HB2       105.1383  121.5105  144.9463 H          2 TYS      0.000000
     35 HB3       104.9953  119.7569  144.6701 H          2 TYS      0.000000
     36 HD1       103.4836  122.8820  143.2441 H          2 TYS      0.000000
     37 HD2       105.3445  119.1173  142.4539 H          2 TYS      0.000000
     38 HE1       103.2980  123.3002  140.8193 H          2 TYS      0.000000
     39 HE2       105.1660  119.5377  140.0257 H          2 TYS      0.000000
     40 Y0        101.2830  119.1940  145.3190 N.am       3 TYS      0.000000
     41 X         100.6450  117.8960  145.4680 C.3        3 TYS      0.000000
     42 X          99.7060  117.6320  144.3000 C.2        3 TYS      0.000000
     43 X          98.6910  118.3090  144.1370 O.2        3 TYS      0.000000
     44 X          99.8880  117.8140  146.7940 C.3        3 TYS      0.000000
     45 X         100.7950  117.8100  148.0110 C.3        3 TYS      0.000000
     46 X         102.0320  116.5000  147.9550 S.3        3 TYS      0.000000
     47 X         102.9500  116.8420  149.4540 C.3        3 TYS      0.000000
     48 X         100.7059  120.0205  145.2571 H          3 TYS      0.000000
     49 X         101.4200  117.1295  145.4664 H          3 TYS      0.000000
     50 X          99.3003  116.8961  146.7992 H          3 TYS      0.000000
     51 X          99.2104  118.6649  146.8643 H          3 TYS      0.000000
     52 X         101.3072  118.7705  148.0667 H          3 TYS      0.000000
     53 X         100.1854  117.6823  148.9055 H          3 TYS      0.000000
     54 X         103.7540  116.1140  149.5624 H          3 TYS      0.000000
     55 X         103.3732  117.8450  149.3997 H          3 TYS      0.000000
     56 X         102.2816  116.7757  150.3125 H          3 TYS      0.000000
     57 X         100.0570  116.6420  143.4880 N.am       4 TYS      0.000000
     58 X          99.2920  116.2670  142.3220 C.3        4 TYS      0.000000
     59 X         100.1830  116.0950  141.1140 C.2        4 TYS      0.000000
     60 X         101.4050  116.2090  141.1830 O.2        4 TYS      0.000000
     61 X         100.9000  116.1261  143.6959 H          4 TYS      0.000000
     62 X          98.7787  115.3263  142.5215 H          4 TYS      0.000000
     63 X          98.5531  117.0410  142.1145 H          4 TYS      0.000000
     64 X          99.7322  115.8647  140.1600 H          4 TYS      0.000000
@<TRIPOS>BOND
     1    1    2 1
     2    1   13 1
     3    1   14 1
     4    1   15 1
     5    2    3 1
     6    2    5 1
     7    2    9 1
     8    3    4 2
     9    3   16 am
    10    5    6 1
    11    5   10 1
    12    5   11 1
    13    6    7 2
    14    6    8 1
    15    8   12 1
    16   16   17 1
    17   16   32 1
    18   17   18 1
    19   17   30 1
    20   17   33 1
    21   18   19 1
    22   18   34 1
    23   18   35 1
    24   19   20 ar
    25   19   21 ar
    26   20   22 ar
    27   20   36 1
    28   21   23 ar
    29   21   37 1
    30   22   24 ar
    31   22   38 1
    32   23   24 ar
    33   23   39 1
    34   24   25 1
    35   25   26 1
    36   26   27 2
    37   26   28 1
    38   26   29 1
    39   30   31 2
    40   30   40 am
    41   40   41 1
    42   40   48 1
    43   41   42 1
    44   41   44 1
    45   41   49 1
    46   42   43 2
    47   42   57 am
    48   44   45 1
    49   44   50 1
    50   44   51 1
    51   45   46 1
    52   45   52 1
    53   45   53 1
    54   46   47 1
    55   47   54 1
    56   47   55 1
    57   47   56 1
    58   57   58 1
    59   57   61 1
    60   58   59 1
    61   58   62 1
    62   58   63 1
    63   59   60 2
    64   59   64 1
