# created with PyMOL 2.3.5
@<TRIPOS>MOLECULE
JEY
43 45 1 0 0
SMALL
USER_CHARGES


@<TRIPOS>ATOM
      1 C4         -0.6650    0.8030    1.0180 C.3       1 JEY1        0.0000
      2 C3         -1.1460    1.7100   -0.1160 C.3       1 JEY1        0.0000
      3 C2         -2.4910    3.7240   -0.3810 C.2       1 JEY1        0.0000
      4 O2         -2.2990    3.6600   -1.5760 O.2       1 JEY1        0.0000
      5 C1         -3.3260    4.8410    0.1900 C.3       1 JEY1        0.0000
      6 O1          4.9040    1.2710    0.3730 O.3       1 JEY1        0.0000
      7 N1         -1.9580    2.7960    0.4380 N.pl3     1 JEY1        0.0000
      8 C10         3.9270    0.3500    0.1560 C.2       1 JEY1        0.0000
      9 C11         2.6170    0.6500    0.4690 C.2       1 JEY1        0.0000
     10 C12         1.6170   -0.3000    0.2390 C.2       1 JEY1        0.0000
     11 C13         6.2370    0.8980    0.0210 C.3       1 JEY1        0.0000
     12 C14        -2.2430   -2.6190   -1.0390 C.2       1 JEY1        0.0000
     13 C15        -3.5570   -3.0370   -1.0010 C.2       1 JEY1        0.0000
     14 C16        -4.3250   -2.8120    0.1280 C.2       1 JEY1        0.0000
     15 C17        -3.7810   -2.1700    1.2250 C.2       1 JEY1        0.0000
     16 C18        -2.4670   -1.7480    1.2000 C.2       1 JEY1        0.0000
     17 C19        -1.6880   -1.9700    0.0640 C.2       1 JEY1        0.0000
     18 N2          0.7810   -2.2760   -0.4240 N.pl3     1 JEY1        0.0000
     19 C5          0.1700   -0.3150    0.4480 C.2       1 JEY1        0.0000
     20 C6         -0.2780   -1.5260    0.0320 C.2       1 JEY1        0.0000
     21 C7          1.9500   -1.5530   -0.3100 C.2       1 JEY1        0.0000
     22 C8          3.2760   -1.8340   -0.6190 C.2       1 JEY1        0.0000
     23 C9          4.2530   -0.8910   -0.3870 C.2       1 JEY1        0.0000
     24 H1         -0.0650    1.3830    1.7190 H         1 JEY1        0.0000
     25 H2         -1.5270    0.3830    1.5380 H         1 JEY1        0.0000
     26 H3         -0.2840    2.1290   -0.6360 H         1 JEY1        0.0000
     27 H4         -1.7460    1.1290   -0.8170 H         1 JEY1        0.0000
     28 H5         -3.3870    4.7340    1.2730 H         1 JEY1        0.0000
     29 H6         -2.8680    5.7990   -0.0550 H         1 JEY1        0.0000
     30 H7         -4.3290    4.7990   -0.2360 H         1 JEY1        0.0000
     31 H8         -2.1110    2.8480    1.3950 H         1 JEY1        0.0000
     32 H9          2.3660    1.6120    0.8910 H         1 JEY1        0.0000
     33 H10         6.9160    1.7220    0.2450 H         1 JEY1        0.0000
     34 H11         6.5320    0.0190    0.5940 H         1 JEY1        0.0000
     35 H12         6.2820    0.6700   -1.0440 H         1 JEY1        0.0000
     36 H13        -1.6430   -2.7990   -1.9200 H         1 JEY1        0.0000
     37 H14        -3.9880   -3.5390   -1.8550 H         1 JEY1        0.0000
     38 H15        -5.3540   -3.1400    0.1520 H         1 JEY1        0.0000
     39 H16        -4.3850   -1.9970    2.1030 H         1 JEY1        0.0000
     40 H17        -2.0430   -1.2460    2.0570 H         1 JEY1        0.0000
     41 H18         0.7150   -3.1780   -0.7740 H         1 JEY1        0.0000
     42 H19         3.5410   -2.7920   -1.0400 H         1 JEY1        0.0000
     43 H20         5.2810   -1.1140   -0.6320 H         1 JEY1        0.0000
@<TRIPOS>BOND
     1   14   15 2
     2   13   14 1
     3   15   16 1
     4   12   13 2
     5   16   17 2
     6    3    4 2
     7   12   17 1
     8   17   20 1
     9    3    5 1
    10    3    7 1
    11    2    7 1
    12    1    2 1
    13    1   19 1
    14   19   20 2
    15   18   20 1
    16   10   19 1
    17   18   21 1
    18   10   21 2
    19    9   10 1
    20   21   22 1
    21    8    9 2
    22   22   23 2
    23    8   23 1
    24    6    8 1
    25    6   11 1
    26    1   24 1
    27    1   25 1
    28    2   26 1
    29    2   27 1
    30    5   28 1
    31    5   29 1
    32    5   30 1
    33    7   31 1
    34    9   32 1
    35   11   33 1
    36   11   34 1
    37   11   35 1
    38   12   36 1
    39   13   37 1
    40   14   38 1
    41   15   39 1
    42   16   40 1
    43   18   41 1
    44   22   42 1
    45   23   43 1
@<TRIPOS>SUBSTRUCTURE
     1 JEY1        1 RESIDUE           4 A     JEY     0 ROOT
