@<TRIPOS>MOLECULE
73R
73 76 1 0 0 
SMALL
USER_CHARGES


@<TRIPOS>ATOM
  1 C1       2.6120    26.4190   152.4270 C.ar  1 Q73R   0.1000 
  2 C2       2.5800    25.9310   153.7840 C.ar  1 Q73R   0.0862 
  3 C3       3.8640    25.6940   154.3790 C.2   1 Q73R   0.5248 
  4 C5       4.9770    26.3570   152.4800 C.2   1 Q73R   0.4400 
  5 C8       1.4370    26.6770   151.7670 C.ar  1 Q73R  -0.1500 
  6 C9       0.2000    26.4780   152.3850 C.ar  1 Q73R  -0.1500 
  7 C12      0.1400    26.0030   153.7080 C.ar  1 Q73R  -0.1435 
  8 C13      1.3160    25.7300   154.4060 C.ar  1 Q73R  -0.1500 
  9 C14      5.1240    25.1180   156.5810 C.3   1 Q73R   0.3271 
 10 C15      5.9610    26.3110   156.5840 C.2   1 Q73R   0.5690 
 11 C17      7.5130    24.3970   156.5560 C.3   1 Q73R   0.1401 
 12 C18      6.0590    24.1200   156.0550 C.3   1 Q73R  -0.1600 
 13 CAP     -1.2270    25.7900   154.3610 C.3   1 Q73R   1.1635 
 14 N4       4.9710    25.9150   153.7100 N.2   1 Q73R  -0.6610 
 15 N6       3.8410    26.6140   151.8230 N.pl3 1 Q73R  -0.5500 
 16 H6       3.8810    26.9550   150.8740 H     1 Q73R   0.4000 
 17 N7       3.9070    25.1970   155.7670 N.2   1 Q73R  -0.1461 
 18 H7       3.0400    24.8910   156.1850 H     1 Q73R   0.4000 
 19 N16      7.3670    25.9190   156.5740 N.am  1 Q73R  -0.6602 
 20 O24      5.5740    27.4660   156.6120 O.2   1 Q73R  -0.5700 
 21 C26      8.4170    26.9400   156.6100 C.3   1 Q73R   0.2201 
 22 C27      9.2300    26.8830   157.8750 C.3   1 Q73R  -0.1600 
 23 C28     10.3170    25.7690   157.7650 C.3   1 Q73R  -0.1600 
 24 C29     11.1690    25.7380   156.5030 C.3   1 Q73R   0.4230 
 25 C30     10.2790    25.8680   155.2870 C.3   1 Q73R  -0.1600 
 26 C31      9.2910    27.0210   155.3770 C.3   1 Q73R  -0.0800 
 27 C35      8.4150    27.0990   154.1350 C.3   1 Q73R  -0.1600 
 28 C36      8.5820    28.5530   153.5260 C.3   1 Q73R  -0.1600 
 29 C37      7.2810    29.0030   152.8720 C.3   1 Q73R  -0.2400 
 30 N38     11.9170    24.5050   156.3740 N.4   1 Q73R  -0.9590 
 31 C39     11.4770    23.4490   157.2600 C.3   1 Q73R   0.2630 
 32 C40     13.3650    24.6840   156.4820 C.3   1 Q73R   0.4230 
 33 C41     13.7550    25.2140   157.8090 C.3   1 Q73R  -0.2400 
 34 C42     13.8760    25.6090   155.3720 C.3   1 Q73R  -0.2400 
 35 F32     -2.1840    25.8820   153.4030 F     1 Q73R  -0.3400 
 36 F33     -1.2770    24.5580   154.9290 F     1 Q73R  -0.3400 
 37 F34     -1.4460    26.7260   155.2970 F     1 Q73R  -0.3400 
 38 H5       5.9220    26.5190   151.9830 H     1 Q73R   0.0600 
 39 H8       1.4690    27.0420   150.7510 H     1 Q73R   0.1500 
 40 H9      -0.7120    26.6870   151.8460 H     1 Q73R   0.1500 
 41 H13      1.2670    25.3650   155.4220 H     1 Q73R   0.1500 
 42 H14      4.7100    24.9110   157.5680 H     1 Q73R   0.0800 
 43 H171     8.2750    24.0520   155.8580 H     1 Q73R   0.0800 
 44 H172     7.7080    23.9780   157.5430 H     1 Q73R   0.0800 
 45 H181     5.7490    23.1300   156.3900 H     1 Q73R   0.0800 
 46 H182     6.0440    24.1570   154.9660 H     1 Q73R   0.0800 
 47 H26      7.8640    27.8790   156.6080 H     1 Q73R   0.0800 
 48 H271     9.7160    27.8460   158.0350 H     1 Q73R   0.0800 
 49 H272     8.5730    26.6630   158.7170 H     1 Q73R   0.0800 
 50 H281     9.8080    24.8080   157.8390 H     1 Q73R   0.0800 
 51 H282    10.9930    25.8880   158.6120 H     1 Q73R   0.0800 
 52 H29     11.8720    26.5680   156.5750 H     1 Q73R   0.0800 
 53 H301    10.9110    26.0230   154.4130 H     1 Q73R   0.0800 
 54 H302     9.7170    24.9410   155.1700 H     1 Q73R   0.0800 
 55 H31      9.8920    27.9280   155.4500 H     1 Q73R   0.0800 
 56 H351     8.7330    26.3520   153.4080 H     1 Q73R   0.0800 
 57 H352     7.3730    26.9250   154.4030 H     1 Q73R   0.0800 
 58 H361     8.8440    29.2490   154.3230 H     1 Q73R   0.0800 
 59 H362     9.3750    28.5410   152.7790 H     1 Q73R   0.0800 
 60 H371     6.4850    29.0160   153.6170 H     1 Q73R   0.0800 
 61 H372     7.0180    28.3110   152.0720 H     1 Q73R   0.0800 
 62 H373     7.4090    30.0040   152.4600 H     1 Q73R   0.0800 
 63 H38     11.7110    24.2080   155.4310 H     1 Q73R   0.4500 
 64 H391    11.6820    23.7320   158.2930 H     1 Q73R   0.0800 
 65 H392    12.0110    22.5290   157.0220 H     1 Q73R   0.0800 
 66 H393    10.4060    23.2900   157.1330 H     1 Q73R   0.0800 
 67 H40     13.8250    23.7020   156.3680 H     1 Q73R   0.0800 
 68 H411    14.8380    25.3320   157.8490 H     1 Q73R   0.0800 
 69 H412    13.4370    24.5180   158.5860 H     1 Q73R   0.0800 
 70 H413    13.2770    26.1800   157.9690 H     1 Q73R   0.0800 
 71 H421    14.9550    25.7300   155.4690 H     1 Q73R   0.0800 
 72 H422    13.3920    26.5820   155.4580 H     1 Q73R   0.0800 
 73 H423    13.6450    25.1730   154.4000 H     1 Q73R   0.0800 
@<TRIPOS>BOND
  1   1   2  ar  
  2   1   5  ar  
  3   1  15  1   
  4   2   3  1   
  5   2   8  ar  
  6   3  14  1   
  7   3  17  2   
  8   4  14  2   
  9   4  15  1   
 10   4  38  1   
 11   5   6  ar  
 12   5  39  1   
 13   6   7  ar  
 14   6  40  1   
 15   7   8  ar  
 16   7  13  1   
 17   8  41  1   
 18   9  10  1   
 19   9  12  1   
 20   9  17  1   
 21   9  42  1   
 22  10  19  am  
 23  10  20  2   
 24  11  12  1   
 25  11  19  1   
 26  11  43  1   
 27  11  44  1   
 28  12  45  1   
 29  12  46  1   
 30  13  35  1   
 31  13  36  1   
 32  13  37  1   
 33  15  16  1   
 34  17  18  1   
 35  19  21  1   
 36  21  22  1   
 37  21  26  1   
 38  21  47  1   
 39  22  23  1   
 40  22  48  1   
 41  22  49  1   
 42  23  24  1   
 43  23  50  1   
 44  23  51  1   
 45  24  25  1   
 46  24  30  1   
 47  24  52  1   
 48  25  26  1   
 49  25  53  1   
 50  25  54  1   
 51  26  27  1   
 52  26  55  1   
 53  27  28  1   
 54  27  56  1   
 55  27  57  1   
 56  28  29  1   
 57  28  58  1   
 58  28  59  1   
 59  29  60  1   
 60  29  61  1   
 61  29  62  1   
 62  30  31  1   
 63  30  32  1   
 64  30  63  1   
 65  31  64  1   
 66  31  65  1   
 67  31  66  1   
 68  32  33  1   
 69  32  34  1   
 70  32  67  1   
 71  33  68  1   
 72  33  69  1   
 73  33  70  1   
 74  34  71  1   
 75  34  72  1   
 76  34  73  1   
@<TRIPOS>SUBSTRUCTURE
  1 Q73R  10 GROUP 4 L **** 0

# MOE 2019.01 (io_trps.svl 2018.10)
