# created with PyMOL 2.3.5
@<TRIPOS>MOLECULE
73R
72 75 1 0 0
SMALL
USER_CHARGES


@<TRIPOS>ATOM
      1 C1          3.1740    0.3220   -2.1850 C.2       1 73R1        0.0000
      2 C2          2.6880   -0.4020   -1.0690 C.2       1 73R1        0.0000
      3 C3          1.3820   -0.9440   -1.1410 C.2       1 73R1        0.0000
      4 C5          1.1780   -0.0610   -3.2680 C.2       1 73R1        0.0000
      5 C8          4.4640    0.8680   -2.1390 C.2       1 73R1        0.0000
      6 C9          5.2290    0.6950   -1.0230 C.2       1 73R1        0.0000
      7 C12         4.7490   -0.0170    0.0720 C.2       1 73R1        0.0000
      8 C13         3.4980   -0.5620    0.0600 C.2       1 73R1        0.0000
      9 C14        -0.5010   -2.2110   -0.1840 C.3       1 73R1        0.0000
     10 C15        -1.5210   -1.1980    0.2880 C.2       1 73R1        0.0000
     11 C17        -2.1330   -3.2190    1.2550 C.3       1 73R1        0.0000
     12 C18        -0.6730   -3.4020    0.7860 C.3       1 73R1        0.0000
     13 CAP         5.6230   -0.1890    1.2880 C.3       1 73R1        0.0000
     14 N4          0.6810   -0.7450   -2.2500 N.2       1 73R1        0.0000
     15 N6          2.3830    0.4590   -3.2590 N.2       1 73R1        0.0000
     16 N7          0.8520   -1.6590   -0.0880 N.pl3     1 73R1        0.0000
     17 N16        -2.4190   -1.7880    1.0960 N.pl3     1 73R1        0.0000
     18 O24        -1.5270   -0.0240   -0.0170 O.2       1 73R1        0.0000
     19 C26        -3.5380   -1.0920    1.7360 C.3       1 73R1        0.0000
     20 C27        -2.9990    0.0230    2.6330 C.3       1 73R1        0.0000
     21 C28        -2.1980    1.0160    1.7880 C.3       1 73R1        0.0000
     22 C29        -3.1040    1.6190    0.7140 C.3       1 73R1        0.0000
     23 C30        -3.6430    0.5030   -0.1840 C.3       1 73R1        0.0000
     24 C31        -4.4440   -0.4890    0.6610 C.3       1 73R1        0.0000
     25 C35        -4.9830   -1.6040   -0.2370 C.3       1 73R1        0.0000
     26 C36        -5.9860   -1.0180   -1.2320 C.3       1 73R1        0.0000
     27 C37        -6.5250   -2.1340   -2.1300 C.3       1 73R1        0.0000
     28 N38        -2.3350    2.5720   -0.0980 N.3       1 73R1        0.0000
     29 C39        -1.0600    1.9850   -0.5310 C.3       1 73R1        0.0000
     30 C40        -2.1150    3.8280    0.6320 C.3       1 73R1        0.0000
     31 C41        -1.3120    4.7920   -0.2430 C.3       1 73R1        0.0000
     32 C42        -3.4650    4.4580    0.9810 C.3       1 73R1        0.0000
     33 F32         5.8390   -1.5520    1.5180 F         1 73R1        0.0000
     34 F33         6.8500    0.4490    1.0740 F         1 73R1        0.0000
     35 F34         4.9910    0.3770    2.4000 F         1 73R1        0.0000
     36 H1          0.5660    0.0720   -4.1480 H         1 73R1        0.0000
     37 H2          4.8500    1.4230   -2.9810 H         1 73R1        0.0000
     38 H3          6.2230    1.1160   -0.9900 H         1 73R1        0.0000
     39 H4          3.1370   -1.1120    0.9160 H         1 73R1        0.0000
     40 H5         -0.7150   -2.5180   -1.2080 H         1 73R1        0.0000
     41 H6         -2.8060   -3.8090    0.6330 H         1 73R1        0.0000
     42 H7         -2.2340   -3.5100    2.3010 H         1 73R1        0.0000
     43 H8         -0.5470   -4.3510    0.2640 H         1 73R1        0.0000
     44 H9          0.0190   -3.3260    1.6250 H         1 73R1        0.0000
     45 H10         1.3760   -1.7960    0.7170 H         1 73R1        0.0000
     46 H11        -4.1090   -1.7990    2.3380 H         1 73R1        0.0000
     47 H12        -3.8320    0.5410    3.1090 H         1 73R1        0.0000
     48 H13        -2.3530   -0.4060    3.3990 H         1 73R1        0.0000
     49 H14        -1.8140    1.8110    2.4280 H         1 73R1        0.0000
     50 H15        -1.3650    0.4980    1.3130 H         1 73R1        0.0000
     51 H16        -3.9370    2.1370    1.1900 H         1 73R1        0.0000
     52 H17        -4.2890    0.9330   -0.9500 H         1 73R1        0.0000
     53 H18        -2.8100   -0.0140   -0.6600 H         1 73R1        0.0000
     54 H19        -5.2770    0.0290    1.1370 H         1 73R1        0.0000
     55 H20        -4.1580   -2.0640   -0.7800 H         1 73R1        0.0000
     56 H21        -5.4780   -2.3570    0.3770 H         1 73R1        0.0000
     57 H22        -6.8120   -0.5580   -0.6890 H         1 73R1        0.0000
     58 H23        -5.4910   -0.2650   -1.8460 H         1 73R1        0.0000
     59 H24        -7.2400   -1.7160   -2.8400 H         1 73R1        0.0000
     60 H25        -5.7000   -2.5930   -2.6740 H         1 73R1        0.0000
     61 H26        -7.0200   -2.8860   -1.5170 H         1 73R1        0.0000
     62 H28        -1.2500    1.2100   -1.2740 H         1 73R1        0.0000
     63 H29        -0.4320    2.7610   -0.9680 H         1 73R1        0.0000
     64 H30        -0.5510    1.5470    0.3280 H         1 73R1        0.0000
     65 H31        -1.5620    3.6230    1.5490 H         1 73R1        0.0000
     66 H32        -1.8650    4.9970   -1.1600 H         1 73R1        0.0000
     67 H33        -1.1490    5.7240    0.2990 H         1 73R1        0.0000
     68 H34        -0.3500    4.3430   -0.4910 H         1 73R1        0.0000
     69 H35        -4.0180    4.6630    0.0640 H         1 73R1        0.0000
     70 H36        -4.0370    3.7710    1.6040 H         1 73R1        0.0000
     71 H37        -3.3020    5.3900    1.5220 H         1 73R1        0.0000
     72 HN         -2.8761    2.7836   -0.9242 H         1 73R1        0.0000
@<TRIPOS>BOND
     1    5    6 2
     2    1    5 1
     3    1   15 2
     4    4   15 1
     5    6    7 1
     6    1    2 1
     7    4   14 2
     8   26   27 1
     9   25   26 1
    10   13   33 1
    11    7   13 1
    12    7    8 2
    13    3   14 1
    14    2    3 2
    15    2    8 1
    16   24   25 1
    17   13   34 1
    18   13   35 1
    19    3   16 1
    20   23   24 1
    21   22   23 1
    22   19   24 1
    23   30   32 1
    24    9   16 1
    25   11   12 1
    26    9   12 1
    27   22   28 1
    28   28   30 1
    29   28   29 1
    30   21   22 1
    31   30   31 1
    32   11   17 1
    33   17   19 1
    34   10   17 1
    35   19   20 1
    36    9   10 1
    37   10   18 2
    38   20   21 1
    39    4   36 1
    40    5   37 1
    41    6   38 1
    42    8   39 1
    43    9   40 1
    44   11   41 1
    45   11   42 1
    46   12   43 1
    47   12   44 1
    48   16   45 1
    49   19   46 1
    50   20   47 1
    51   20   48 1
    52   21   49 1
    53   21   50 1
    54   22   51 1
    55   23   52 1
    56   23   53 1
    57   24   54 1
    58   25   55 1
    59   25   56 1
    60   26   57 1
    61   26   58 1
    62   27   59 1
    63   27   60 1
    64   27   61 1
    65   29   62 1
    66   29   63 1
    67   29   64 1
    68   30   65 1
    69   31   66 1
    70   31   67 1
    71   31   68 1
    72   32   69 1
    73   32   70 1
    74   32   71 1
    75   72   28 1
@<TRIPOS>SUBSTRUCTURE
     1 73R1        1 RESIDUE           4 A     73R     0 ROOT
