# created with PyMOL 2.3.5
@<TRIPOS>MOLECULE
SNT
56 59 1 0 0
SMALL
USER_CHARGES


@<TRIPOS>ATOM
      1 C4         -5.5940    0.5000   -0.0460 C.2       1 SNT1        0.0000
      2 C3         -5.7900    1.6660    0.6820 C.2       1 SNT1        0.0000
      3 C2         -7.0050    2.3200    0.6230 C.2       1 SNT1        0.0000
      4 C1         -8.0260    1.8140   -0.1600 C.2       1 SNT1        0.0000
      5 N1         -4.3640   -0.1680    0.0160 N.pl3     1 SNT1        0.0000
      6 N2          0.0270   -1.4600    0.2750 N.2       1 SNT1        0.0000
      7 N3          1.4040   -1.3040    0.4810 N.pl3     1 SNT1        0.0000
      8 N4          4.1110   -1.0190   -0.1180 N.3       1 SNT1        0.0000
      9 N5         -4.1820   -1.5560   -0.0270 N.2       1 SNT1        0.0000
     10 C5         -3.1500    0.4160    0.1210 C.2       1 SNT1        0.0000
     11 C6         -2.2100   -0.5910    0.1500 C.2       1 SNT1        0.0000
     12 C7         -0.7480   -0.4200    0.2590 C.2       1 SNT1        0.0000
     13 C8          2.2840   -2.4750    0.6180 C.3       1 SNT1        0.0000
     14 C9          3.4600   -2.3160   -0.3510 C.3       1 SNT1        0.0000
     15 C10         5.3450   -0.9000   -0.9060 C.3       1 SNT1        0.0000
     16 C11         6.1070    0.3220   -0.4640 C.2       1 SNT1        0.0000
     17 C12         5.8700    1.5420   -1.0700 C.2       1 SNT1        0.0000
     18 C13         6.5700    2.6630   -0.6640 C.2       1 SNT1        0.0000
     19 C14         7.5060    2.5640    0.3490 C.2       1 SNT1        0.0000
     20 C15        -7.8340    0.6540   -0.8870 C.2       1 SNT1        0.0000
     21 C16        -6.6210   -0.0050   -0.8320 C.2       1 SNT1        0.0000
     22 C17        -2.9050   -1.8160    0.0540 C.2       1 SNT1        0.0000
     23 C18        -2.2800   -3.1880    0.0440 C.3       1 SNT1        0.0000
     24 C19         3.1970    0.0890   -0.4070 C.3       1 SNT1        0.0000
     25 C20         2.0090    0.0340    0.5590 C.3       1 SNT1        0.0000
     26 C21         7.7430    1.3440    0.9550 C.2       1 SNT1        0.0000
     27 C22         7.0400    0.2250    0.5520 C.2       1 SNT1        0.0000
     28 C23        -2.8750    1.8960    0.1920 C.3       1 SNT1        0.0000
     29 H1         -4.9920    2.0610    1.2940 H         1 SNT1        0.0000
     30 H2         -7.1580    3.2260    1.1900 H         1 SNT1        0.0000
     31 H3         -8.9760    2.3270   -0.2040 H         1 SNT1        0.0000
     32 H5         -0.3230    0.5710    0.3240 H         1 SNT1        0.0000
     33 H6          2.6570   -2.5340    1.6400 H         1 SNT1        0.0000
     34 H7          1.7290   -3.3810    0.3740 H         1 SNT1        0.0000
     35 H8          3.0950   -2.3600   -1.3770 H         1 SNT1        0.0000
     36 H9          4.1790   -3.1180   -0.1860 H         1 SNT1        0.0000
     37 H10         5.9600   -1.7870   -0.7550 H         1 SNT1        0.0000
     38 H11         5.0930   -0.8080   -1.9630 H         1 SNT1        0.0000
     39 H12         5.1390    1.6190   -1.8600 H         1 SNT1        0.0000
     40 H13         6.3850    3.6160   -1.1370 H         1 SNT1        0.0000
     41 H14         8.0530    3.4400    0.6660 H         1 SNT1        0.0000
     42 H15        -8.6340    0.2610   -1.4970 H         1 SNT1        0.0000
     43 H16        -6.4740   -0.9140   -1.3960 H         1 SNT1        0.0000
     44 H17        -2.0560   -3.4770   -0.9820 H         1 SNT1        0.0000
     45 H18        -1.3590   -3.1720    0.6270 H         1 SNT1        0.0000
     46 H19        -2.9740   -3.9060    0.4810 H         1 SNT1        0.0000
     47 H20         3.7220    1.0360   -0.2820 H         1 SNT1        0.0000
     48 H21         2.8370    0.0060   -1.4330 H         1 SNT1        0.0000
     49 H22         1.2720    0.7860    0.2770 H         1 SNT1        0.0000
     50 H23         2.3550    0.2200    1.5760 H         1 SNT1        0.0000
     51 H24         8.4750    1.2670    1.7450 H         1 SNT1        0.0000
     52 H25         7.2220   -0.7280    1.0280 H         1 SNT1        0.0000
     53 H26        -2.8790    2.2170    1.2340 H         1 SNT1        0.0000
     54 H27        -1.9000    2.1060   -0.2480 H         1 SNT1        0.0000
     55 H28        -3.6460    2.4360   -0.3570 H         1 SNT1        0.0000
     56 HN          4.3608   -0.9683    0.8593 H         1 SNT1        0.0000
@<TRIPOS>BOND
     1    3    4 2
     2    2    3 1
     3    4   20 1
     4    1    2 2
     5   20   21 2
     6    1   21 1
     7    1    5 1
     8    5    9 1
     9    5   10 1
    10    9   22 2
    11   10   28 1
    12   10   11 2
    13   22   23 1
    14   11   22 1
    15   11   12 1
    16    6   12 2
    17    6    7 1
    18    7   25 1
    19    7   13 1
    20   24   25 1
    21   13   14 1
    22    8   24 1
    23    8   14 1
    24    8   15 1
    25   15   16 1
    26   16   27 2
    27   16   17 1
    28   26   27 1
    29   17   18 2
    30   19   26 2
    31   18   19 1
    32    2   29 1
    33    3   30 1
    34    4   31 1
    35   12   32 1
    36   13   33 1
    37   13   34 1
    38   14   35 1
    39   14   36 1
    40   15   37 1
    41   15   38 1
    42   17   39 1
    43   18   40 1
    44   19   41 1
    45   20   42 1
    46   21   43 1
    47   23   44 1
    48   23   45 1
    49   23   46 1
    50   24   47 1
    51   24   48 1
    52   25   49 1
    53   25   50 1
    54   26   51 1
    55   27   52 1
    56   28   53 1
    57   28   54 1
    58   28   55 1
    59   56    8 1
@<TRIPOS>SUBSTRUCTURE
     1 SNT1        1 RESIDUE           4 A     SNT     0 ROOT
