# created with PyMOL 2.3.5
@<TRIPOS>MOLECULE
OLA
54 53 1                 
SMALL
USER_CHARGES
@<TRIPOS>ATOM
1	  C1	1.422	-0.175	-8.205	C.2	1	OLA0	0.000	
2	  O1	0.409	-0.728	-8.561	O.co2	1	OLA0	0.000	
3	  O2	2.421	0.023	-9.080	O.3	1	OLA0	0.000	
4	  C2	1.566	0.290	-6.779	C.3	1	OLA0	0.000	
5	  C3	0.296	-0.056	-5.999	C.3	1	OLA0	0.000	
6	  C4	0.441	0.416	-4.551	C.3	1	OLA0	0.000	
7	  C5	-0.827	0.070	-3.771	C.3	1	OLA0	0.000	
8	  C6	-0.682	0.543	-2.324	C.3	1	OLA0	0.000	
9	  C7	-1.951	0.196	-1.544	C.3	1	OLA0	0.000	
10	  C8	-1.806	0.669	-0.096	C.3	1	OLA0	0.000	
11	  C9	-3.056	0.328	0.672	C.2	1	OLA0	0.000	
12	 C10	-2.973	-0.342	1.794	C.2	1	OLA0	0.000	
13	 C11	-1.624	-0.636	2.398	C.3	1	OLA0	0.000	
14	 C12	-1.604	-0.169	3.854	C.3	1	OLA0	0.000	
15	 C13	-0.235	-0.467	4.467	C.3	1	OLA0	0.000	
16	 C14	-0.215	0.000	5.924	C.3	1	OLA0	0.000	
17	 C15	1.154	-0.297	6.537	C.3	1	OLA0	0.000	
18	 C16	1.173	0.169	7.994	C.3	1	OLA0	0.000	
19	 C17	2.543	-0.128	8.607	C.3	1	OLA0	0.000	
20	 C18	2.562	0.338	10.064	C.3	1	OLA0	0.000	
21	 HO2	2.329	-0.275	-9.995	 H	1	OLA0	0.000	
22	 H21	1.718	1.369	-6.763	 H	1	OLA0	0.000	
23	 H22	2.421	-0.204	-6.319	 H	1	OLA0	0.000	
24	 H31	0.143	-1.135	-6.015	 H	1	OLA0	0.000	
25	 H32	-0.559	0.438	-6.459	 H	1	OLA0	0.000	
26	 H41	0.594	1.496	-4.536	 H	1	OLA0	0.000	
27	 H42	1.297	-0.077	-4.092	 H	1	OLA0	0.000	
28	 H51	-0.980	-1.009	-3.787	 H	1	OLA0	0.000	
29	 H52	-1.683	0.564	-4.231	 H	1	OLA0	0.000	
30	 H61	-0.529	1.622	-2.308	 H	1	OLA0	0.000	
31	 H62	0.173	0.048	-1.864	 H	1	OLA0	0.000	
32	 H71	-2.104	-0.882	-1.559	 H	1	OLA0	0.000	
33	 H72	-2.807	0.691	-2.003	 H	1	OLA0	0.000	
34	 H81	-1.653	1.748	-0.080	 H	1	OLA0	0.000	
35	 H82	-0.950	0.175	0.363	 H	1	OLA0	0.000	
36	  H9	-4.021	0.635	0.297	 H	1	OLA0	0.000	
37	 H10	-3.871	-0.685	2.286	 H	1	OLA0	0.000	
38	H111	-0.852	-0.109	1.837	 H	1	OLA0	0.000	
39	H112	-1.433	-1.708	2.357	 H	1	OLA0	0.000	
40	H121	-2.376	-0.696	4.415	 H	1	OLA0	0.000	
41	H122	-1.795	0.903	3.894	 H	1	OLA0	0.000	
42	H131	0.536	0.060	3.906	 H	1	OLA0	0.000	
43	H132	-0.044	-1.539	4.427	 H	1	OLA0	0.000	
44	H141	-0.987	-0.527	6.485	 H	1	OLA0	0.000	
45	H142	-0.406	1.072	5.964	 H	1	OLA0	0.000	
46	H151	1.925	0.229	5.976	 H	1	OLA0	0.000	
47	H152	1.344	-1.370	6.497	 H	1	OLA0	0.000	
48	H161	0.401	-0.357	8.555	 H	1	OLA0	0.000	
49	H162	0.983	1.241	8.034	 H	1	OLA0	0.000	
50	H171	3.314	0.398	8.046	 H	1	OLA0	0.000	
51	H172	2.733	-1.201	8.567	 H	1	OLA0	0.000	
52	H181	3.538	0.126	10.500	 H	1	OLA0	0.000	
53	H182	2.372	1.411	10.104	 H	1	OLA0	0.000	
54	H183	1.791	-0.188	10.625	 H	1	OLA0	0.000	
@<TRIPOS>BOND
1 1 2 2
2 1 3 1
3 1 4 1
4 3 21 1
5 4 5 1
6 4 22 1
7 4 23 1
8 5 6 1
9 5 24 1
10 5 25 1
11 6 7 1
12 6 26 1
13 6 27 1
14 7 8 1
15 7 28 1
16 7 29 1
17 8 9 1
18 8 30 1
19 8 31 1
20 9 10 1
21 9 32 1
22 9 33 1
23 10 11 1
24 10 34 1
25 10 35 1
26 11 12 2
27 11 36 1
28 12 13 1
29 12 37 1
30 13 14 1
31 13 38 1
32 13 39 1
33 14 15 1
34 14 40 1
35 14 41 1
36 15 16 1
37 15 42 1
38 15 43 1
39 16 17 1
40 16 44 1
41 16 45 1
42 17 18 1
43 17 46 1
44 17 47 1
45 18 19 1
46 18 48 1
47 18 49 1
48 19 20 1
49 19 50 1
50 19 51 1
51 20 52 1
52 20 53 1
53 20 54 1
@<TRIPOS>SUBSTRUCTURE
1	OLA0	1	GROUP	1 ****	OLA
