# created with PyMOL 2.3.5
@<TRIPOS>MOLECULE
PCA
16 16 1                 
SMALL
USER_CHARGES
@<TRIPOS>ATOM
1	   N	0.713	0.531	-0.633	N.pl3	1	PCA0	0.000	
2	  CA	-0.328	0.539	0.400	C.3	1	PCA0	0.000	
3	  CB	-1.455	-0.368	-0.140	C.3	1	PCA0	0.000	
4	  CG	-1.232	-0.272	-1.667	C.3	1	PCA0	0.000	
5	  CD	0.231	0.082	-1.807	C.2	1	PCA0	0.000	
6	  OE	0.876	-0.019	-2.829	O.2	1	PCA0	0.000	
7	   C	0.214	-0.015	1.691	C.2	1	PCA0	0.000	
8	   O	1.122	-0.812	1.672	O.co2	1	PCA0	0.000	
9	 OXT	-0.311	0.374	2.863	O.3	1	PCA0	0.000	
10	   H	1.631	0.810	-0.489	 H	1	PCA0	0.000	
11	  HA	-0.700	1.552	0.552	 H	1	PCA0	0.000	
12	 HB2	-1.331	-1.393	0.208	 H	1	PCA0	0.000	
13	 HB3	-2.435	0.019	0.136	 H	1	PCA0	0.000	
14	 HG2	-1.439	-1.230	-2.144	 H	1	PCA0	0.000	
15	 HG3	-1.857	0.511	-2.095	 H	1	PCA0	0.000	
16	 HXT	0.036	0.018	3.692	 H	1	PCA0	0.000	
@<TRIPOS>BOND
1 1 2 1
2 1 5 1
3 1 10 1
4 2 3 1
5 2 7 1
6 2 11 1
7 3 4 1
8 3 12 1
9 3 13 1
10 4 5 1
11 4 14 1
12 4 15 1
13 5 6 2
14 7 8 2
15 7 9 1
16 9 16 1
@<TRIPOS>SUBSTRUCTURE
1	PCA0	1	GROUP	1 ****	PCA
