# created with PyMOL 2.3.5
@<TRIPOS>MOLECULE
97Y
64 67 1 0 0
SMALL
USER_CHARGES


@<TRIPOS>ATOM
      1 C13         0.5350    1.2040    0.6640 C.3       1 97Y1        0.0000
      2 C15         0.9530    3.4030   -0.5920 C.3       1 97Y1        0.0000
      3 C17         1.9320    0.6560    0.8020 C.2       1 97Y1        0.0000
      4 C20        -1.3470    0.3430   -0.7030 C.2       1 97Y1        0.0000
      5 C21        -8.5730   -1.5930    0.6010 C.3       1 97Y1        0.0000
      6 C22        -6.1500   -0.9080    0.2510 C.2       1 97Y1        0.0000
      7 C24        -3.1650   -0.5970   -1.9290 C.2       1 97Y1        0.0000
      8 C26         2.3590    0.1570    2.0200 C.2       1 97Y1        0.0000
      9 C28        -1.8500   -0.1690   -1.8980 C.2       1 97Y1        0.0000
     10 F01        -8.2960   -2.3470    1.7470 F         1 97Y1        0.0000
     11 F02        -9.5310   -2.2570   -0.1730 F         1 97Y1        0.0000
     12 F03        -9.0650   -0.3380    0.9760 F         1 97Y1        0.0000
     13 O04         6.2460   -1.3310    2.2590 O.2       1 97Y1        0.0000
     14 O05        10.9920   -1.9110   -2.0100 O.3       1 97Y1        0.0000
     15 O06        10.5470   -2.3250    0.1150 O.co2     1 97Y1        0.0000
     16 N07        -5.2670   -0.9350   -0.7980 N.pl3     1 97Y1        0.0000
     17 N08        -0.0250    0.7930   -0.6260 N.pl3     1 97Y1        0.0000
     18 N09        -7.1480   -1.7440   -1.4940 N.2       1 97Y1        0.0000
     19 N10        -3.4240   -0.0170    0.3420 N.2       1 97Y1        0.0000
     20 N11         6.6920   -0.9150    0.1230 N.pl3     1 97Y1        0.0000
     21 C12         0.5770    2.7310    0.7390 C.3       1 97Y1        0.0000
     22 C14        -0.1110    4.4640   -0.2670 C.3       1 97Y1        0.0000
     23 C16        -0.8040    3.3930    0.5920 C.3       1 97Y1        0.0000
     24 C18        -7.3100   -1.4180   -0.2030 C.2       1 97Y1        0.0000
     25 C19        -3.9350   -0.5040   -0.7770 C.2       1 97Y1        0.0000
     26 C23        -5.9290   -1.4600   -1.8620 C.2       1 97Y1        0.0000
     27 C25         2.7800    0.6480   -0.2920 C.2       1 97Y1        0.0000
     28 C27        -2.1770    0.4050    0.4080 C.2       1 97Y1        0.0000
     29 C29         0.4280    5.6460    0.5410 C.3       1 97Y1        0.0000
     30 C30        -0.9330    4.9010   -1.4820 C.3       1 97Y1        0.0000
     31 C31         4.4950   -0.3620    1.0530 C.2       1 97Y1        0.0000
     32 C32         4.0580    0.1420   -0.1740 C.2       1 97Y1        0.0000
     33 C33         3.6370   -0.3460    2.1530 C.2       1 97Y1        0.0000
     34 C34         5.8650   -0.9010    1.1880 C.2       1 97Y1        0.0000
     35 C35         8.0500   -1.4490    0.2570 C.3       1 97Y1        0.0000
     36 C36         8.7720   -1.3490   -1.0880 C.3       1 97Y1        0.0000
     37 C37        10.1690   -1.8980   -0.9500 C.2       1 97Y1        0.0000
     38 H13        -0.0883    0.8176    1.4704 H         1 97Y1        0.0000
     39 H152        0.7447    2.8053   -1.4794 H         1 97Y1        0.0000
     40 H153        1.9650    3.8079   -0.5867 H         1 97Y1        0.0000
     41 H22        -5.9526   -0.5469    1.2495 H         1 97Y1        0.0000
     42 H24        -3.5878   -0.9986   -2.8380 H         1 97Y1        0.0000
     43 H26         1.6906    0.1613    2.8683 H         1 97Y1        0.0000
     44 H28        -1.2278   -0.2301   -2.7787 H         1 97Y1        0.0000
     45 H08         0.5436    0.8346   -1.4597 H         1 97Y1        0.0000
     46 H11         6.3754   -0.5575   -0.7670 H         1 97Y1        0.0000
     47 H12         1.1476    3.1062    1.5886 H         1 97Y1        0.0000
     48 H162       -1.5438    2.7923    0.0629 H         1 97Y1        0.0000
     49 H163       -1.1817    3.7901    1.5342 H         1 97Y1        0.0000
     50 H23        -5.5154   -1.6161   -2.8474 H         1 97Y1        0.0000
     51 H25         2.4405    1.0387   -1.2399 H         1 97Y1        0.0000
     52 H27        -1.7967    0.8035    1.3370 H         1 97Y1        0.0000
     53 H32         4.7188    0.1356   -1.0282 H         1 97Y1        0.0000
     54 H33         3.9724   -0.7265    3.1065 H         1 97Y1        0.0000
     55 H352        8.5946   -0.8732    1.0053 H         1 97Y1        0.0000
     56 H353        8.0011   -2.4930    0.5665 H         1 97Y1        0.0000
     57 H362        8.2276   -1.9250   -1.8363 H         1 97Y1        0.0000
     58 H363        8.8207   -0.3050   -1.3977 H         1 97Y1        0.0000
     59 H301       -1.2889    4.0202   -2.0164 H         1 97Y1        0.0000
     60 H302       -0.3098    5.5008   -2.1453 H         1 97Y1        0.0000
     61 H303       -1.7854    5.4936   -1.1499 H         1 97Y1        0.0000
     62 H291        1.0025    5.2748    1.3897 H         1 97Y1        0.0000
     63 H292        1.0707    6.2565   -0.0933 H         1 97Y1        0.0000
     64 H293       -0.4049    6.2493    0.9021 H         1 97Y1        0.0000
@<TRIPOS>BOND
     1    5   10 1
     2   18   26 2
     3   18   24 1
     4   15   37 2
     5    5   24 1
     6    5   11 1
     7    5   12 1
     8   16   26 1
     9   36   37 1
    10   35   36 1
    11    6   24 2
    12   14   37 1
    13   13   34 2
    14   20   35 1
    15    6   16 1
    16   16   25 1
    17   20   34 1
    18   31   34 1
    19    7   25 2
    20    7    9 1
    21   19   25 1
    22   31   32 2
    23   27   32 1
    24   31   33 1
    25    4    9 2
    26    3   27 2
    27   19   28 2
    28    8   33 2
    29    4   28 1
    30    4   17 1
    31    3    8 1
    32    1    3 1
    33    1   17 1
    34    1   21 1
    35   21   23 1
    36    2   21 1
    37   22   23 1
    38    2   22 1
    39   22   30 1
    40   22   29 1
    41   38    1 1
    42   39    2 1
    43   40    2 1
    44   41    6 1
    45   42    7 1
    46   43    8 1
    47   44    9 1
    48   45   17 1
    49   46   20 1
    50   47   21 1
    51   48   23 1
    52   49   23 1
    53   50   26 1
    54   51   27 1
    55   52   28 1
    56   53   32 1
    57   54   33 1
    58   55   35 1
    59   56   35 1
    60   57   36 1
    61   58   36 1
    62   59   30 1
    63   60   30 1
    64   61   30 1
    65   62   29 1
    66   63   29 1
    67   64   29 1
@<TRIPOS>SUBSTRUCTURE
     1 97Y1        1 RESIDUE           4 A     97Y     0 ROOT
