# created with PyMOL 2.3.5
@<TRIPOS>MOLECULE
JRZ
48 49 1 0 0
SMALL
USER_CHARGES


@<TRIPOS>ATOM
      1 H01         4.6980   -0.6370   -1.1430 H         1 JRZ1        0.0000
      2 C1         -5.1550   -1.0770    0.1360 C.3       1 JRZ1        0.0000
      3 N1          4.4030   -0.4280   -0.1150 N.3       1 JRZ1        0.0000
      4 O1         -0.4560   -0.4930   -0.1020 O.3       1 JRZ1        0.0000
      5 C2         -4.4460   -2.3960    0.5090 C.3       1 JRZ1        0.0000
      6 O2          1.9670   -1.2110   -1.4710 O.3       1 JRZ1        0.0000
      7 C3         -3.0100   -2.1560   -0.0030 C.3       1 JRZ1        0.0000
      8 C4         -2.8270   -0.6540    0.0210 C.2       1 JRZ1        0.0000
      9 C5         -4.0590   -0.0340    0.1020 C.2       1 JRZ1        0.0000
     10 C6         -4.1350    1.3490    0.1380 C.2       1 JRZ1        0.0000
     11 C7         -5.4790    2.0240    0.2260 C.3       1 JRZ1        0.0000
     12 C8         -2.9840    2.1120    0.0950 C.2       1 JRZ1        0.0000
     13 C9         -1.7500    1.4970    0.0140 C.2       1 JRZ1        0.0000
     14 C10        -1.6690    0.1140   -0.0230 C.2       1 JRZ1        0.0000
     15 C11         0.6930    0.3560   -0.1450 C.3       1 JRZ1        0.0000
     16 C12         1.9580   -0.5000   -0.2320 C.3       1 JRZ1        0.0000
     17 C13         3.1910    0.4020   -0.1510 C.3       1 JRZ1        0.0000
     18 C14         3.2350    1.3160   -1.3780 C.3       1 JRZ1        0.0000
     19 C15         5.5100    0.2860    0.5360 C.3       1 JRZ1        0.0000
     20 C16         5.4160    0.1010    2.0510 C.3       1 JRZ1        0.0000
     21 C17         6.8420   -0.2750    0.0350 C.3       1 JRZ1        0.0000
     22 H1         -5.6260   -1.1640   -0.8430 H         1 JRZ1        0.0000
     23 H1A        -5.8980   -0.8210    0.8920 H         1 JRZ1        0.0000
     24 HN1         4.2230   -1.3090    0.3420 H         1 JRZ1        0.0000
     25 H2         -4.4520   -2.5480    1.5880 H         1 JRZ1        0.0000
     26 H2A        -4.9040   -3.2410   -0.0050 H         1 JRZ1        0.0000
     27 HO2         1.9550   -0.6400   -2.2520 H         1 JRZ1        0.0000
     28 H3         -2.2870   -2.6360    0.6570 H         1 JRZ1        0.0000
     29 H3A        -2.9030   -2.5330   -1.0200 H         1 JRZ1        0.0000
     30 H7         -5.7490    2.1620    1.2730 H         1 JRZ1        0.0000
     31 H7A        -5.4320    2.9940   -0.2680 H         1 JRZ1        0.0000
     32 H7B        -6.2300    1.4030   -0.2630 H         1 JRZ1        0.0000
     33 H8         -3.0500    3.1900    0.1240 H         1 JRZ1        0.0000
     34 H9         -0.8500    2.0930   -0.0200 H         1 JRZ1        0.0000
     35 H11         0.6330    1.0060   -1.0180 H         1 JRZ1        0.0000
     36 H11A        0.7280    0.9650    0.7590 H         1 JRZ1        0.0000
     37 H12         1.9730   -1.2110    0.5950 H         1 JRZ1        0.0000
     38 H13         3.1390    1.0090    0.7520 H         1 JRZ1        0.0000
     39 H14         2.3360    1.9310   -1.4050 H         1 JRZ1        0.0000
     40 H14A        4.1140    1.9580   -1.3210 H         1 JRZ1        0.0000
     41 H14B        3.2880    0.7080   -2.2820 H         1 JRZ1        0.0000
     42 H15         5.4490    1.3480    0.2950 H         1 JRZ1        0.0000
     43 H16         5.4770   -0.9610    2.2920 H         1 JRZ1        0.0000
     44 H16A        6.2370    0.6310    2.5340 H         1 JRZ1        0.0000
     45 H16B        4.4670    0.5000    2.4080 H         1 JRZ1        0.0000
     46 H17         6.9090   -0.1420   -1.0450 H         1 JRZ1        0.0000
     47 H17A        7.6640    0.2550    0.5170 H         1 JRZ1        0.0000
     48 H17B        6.9030   -1.3360    0.2750 H         1 JRZ1        0.0000
@<TRIPOS>BOND
     1    2    5 1
     2    2    9 1
     3    2   22 1
     4    2   23 1
     5    1    3 1
     6    3   17 1
     7    3   19 1
     8    3   24 1
     9    4   14 1
    10    4   15 1
    11    5    7 1
    12    5   25 1
    13    5   26 1
    14    6   16 1
    15    6   27 1
    16    7    8 1
    17    7   28 1
    18    7   29 1
    19    8    9 2
    20    8   14 1
    21    9   10 1
    22   10   11 1
    23   10   12 2
    24   11   30 1
    25   11   31 1
    26   11   32 1
    27   12   13 1
    28   12   33 1
    29   13   14 2
    30   13   34 1
    31   15   16 1
    32   15   35 1
    33   15   36 1
    34   16   17 1
    35   16   37 1
    36   17   18 1
    37   17   38 1
    38   18   39 1
    39   18   40 1
    40   18   41 1
    41   19   20 1
    42   19   21 1
    43   19   42 1
    44   20   43 1
    45   20   44 1
    46   20   45 1
    47   21   46 1
    48   21   47 1
    49   21   48 1
@<TRIPOS>SUBSTRUCTURE
     1 JRZ1        1 RESIDUE           4 A     JRZ     0 ROOT
