# created with PyMOL 2.3.5
@<TRIPOS>MOLECULE
PLM
50 49 1                 
SMALL
USER_CHARGES
@<TRIPOS>ATOM
1	  C1	0.142	0.001	-8.190	C.2	1	PLM0	0.000	
2	  O1	-0.449	-0.004	-9.395	O.3	1	PLM0	0.000	
3	  O2	1.347	0.014	-8.109	O.co2	1	PLM0	0.000	
4	  C2	-0.697	-0.007	-6.939	C.3	1	PLM0	0.000	
5	  C3	0.215	0.002	-5.711	C.3	1	PLM0	0.000	
6	  C4	-0.636	-0.007	-4.441	C.3	1	PLM0	0.000	
7	  C5	0.276	0.003	-3.214	C.3	1	PLM0	0.000	
8	  C6	-0.576	-0.006	-1.943	C.3	1	PLM0	0.000	
9	  C7	0.337	0.003	-0.716	C.3	1	PLM0	0.000	
10	  C8	-0.515	-0.005	0.553	C.3	1	PLM0	0.000	
11	  C9	0.398	0.004	1.781	C.3	1	PLM0	0.000	
12	  CA	-0.454	-0.005	3.051	C.3	1	PLM0	0.000	
13	  CB	0.459	0.005	4.279	C.3	1	PLM0	0.000	
14	  CC	-0.393	-0.004	5.549	C.3	1	PLM0	0.000	
15	  CD	0.520	0.005	6.776	C.3	1	PLM0	0.000	
16	  CE	-0.332	-0.003	8.047	C.3	1	PLM0	0.000	
17	  CF	0.580	0.006	9.274	C.3	1	PLM0	0.000	
18	  CG	-0.271	-0.003	10.544	C.3	1	PLM0	0.000	
19	   H	0.089	0.001	-10.198	 H	1	PLM0	0.000	
20	 H21	-1.317	-0.904	-6.923	 H	1	PLM0	0.000	
21	 H22	-1.336	0.875	-6.923	 H	1	PLM0	0.000	
22	 H31	0.835	0.899	-5.727	 H	1	PLM0	0.000	
23	 H32	0.854	-0.880	-5.727	 H	1	PLM0	0.000	
24	 H41	-1.256	-0.903	-4.426	 H	1	PLM0	0.000	
25	 H42	-1.275	0.876	-4.426	 H	1	PLM0	0.000	
26	 H51	0.896	0.899	-3.229	 H	1	PLM0	0.000	
27	 H52	0.915	-0.880	-3.229	 H	1	PLM0	0.000	
28	 H61	-1.195	-0.903	-1.928	 H	1	PLM0	0.000	
29	 H62	-1.214	0.876	-1.928	 H	1	PLM0	0.000	
30	 H71	0.956	0.900	-0.731	 H	1	PLM0	0.000	
31	 H72	0.976	-0.879	-0.731	 H	1	PLM0	0.000	
32	 H81	-1.134	-0.902	0.569	 H	1	PLM0	0.000	
33	 H82	-1.154	0.877	0.569	 H	1	PLM0	0.000	
34	 H91	1.017	0.901	1.766	 H	1	PLM0	0.000	
35	 H92	1.037	-0.878	1.766	 H	1	PLM0	0.000	
36	 HA1	-1.073	-0.901	3.067	 H	1	PLM0	0.000	
37	 HA2	-1.093	0.878	3.067	 H	1	PLM0	0.000	
38	 HB1	1.078	0.901	4.263	 H	1	PLM0	0.000	
39	 HB2	1.098	-0.878	4.263	 H	1	PLM0	0.000	
40	 HC1	-1.012	-0.901	5.564	 H	1	PLM0	0.000	
41	 HC2	-1.032	0.878	5.564	 H	1	PLM0	0.000	
42	 HD1	1.139	0.902	6.761	 H	1	PLM0	0.000	
43	 HD2	1.158	-0.877	6.761	 H	1	PLM0	0.000	
44	 HE1	-0.952	-0.900	8.062	 H	1	PLM0	0.000	
45	 HE2	-0.971	0.879	8.062	 H	1	PLM0	0.000	
46	 HF1	1.200	0.903	9.259	 H	1	PLM0	0.000	
47	 HF2	1.219	-0.876	9.259	 H	1	PLM0	0.000	
48	 HG1	0.379	0.004	11.419	 H	1	PLM0	0.000	
49	 HG2	-0.910	0.880	10.560	 H	1	PLM0	0.000	
50	 HG3	-0.891	-0.899	10.560	 H	1	PLM0	0.000	
@<TRIPOS>BOND
1 1 2 1
2 1 3 2
3 1 4 1
4 2 19 1
5 4 5 1
6 4 20 1
7 4 21 1
8 5 6 1
9 5 22 1
10 5 23 1
11 6 7 1
12 6 24 1
13 6 25 1
14 7 8 1
15 7 26 1
16 7 27 1
17 8 9 1
18 8 28 1
19 8 29 1
20 9 10 1
21 9 30 1
22 9 31 1
23 10 11 1
24 10 32 1
25 10 33 1
26 11 12 1
27 11 34 1
28 11 35 1
29 12 13 1
30 12 36 1
31 12 37 1
32 13 14 1
33 13 38 1
34 13 39 1
35 14 15 1
36 14 40 1
37 14 41 1
38 15 16 1
39 15 42 1
40 15 43 1
41 16 17 1
42 16 44 1
43 16 45 1
44 17 18 1
45 17 46 1
46 17 47 1
47 18 48 1
48 18 49 1
49 18 50 1
@<TRIPOS>SUBSTRUCTURE
1	PLM0	1	GROUP	1 ****	PLM
