@<TRIPOS>MOLECULE
8D0
29 31 1 0 0
SMALL
NO_CHARGES


@<TRIPOS>ATOM
      1 C1        111.5730  110.7610  126.1810 C.ar      1 8D0424      0.0000
      2 C2        110.9310  111.6470  125.3390 C.ar      1 8D0424      0.0000
      3 C3        110.0330  111.2770  124.3560 C.ar      1 8D0424      0.0000
      4 C4        109.8660  109.8880  124.3330 C.ar      1 8D0424      0.0000
      5 C5        110.4650  108.8770  125.1570 C.ar      1 8D0424      0.0000
      6 N1        105.8300  111.8220  129.6480 N.1       1 8D0424      0.0000
      7 C10       108.9800  106.7390  124.6110 C.3       1 8D0424      0.0000
      8 C11       108.6310  105.2550  124.6550 C.3       1 8D0424      0.0000
      9 C12       108.8270  104.8160  126.1120 C.3       1 8D0424      0.0000
     10 C13       110.1530  105.2890  126.7480 C.3       1 8D0424      0.0000
     11 C14       107.1650  105.1160  124.2460 C.3       1 8D0424      0.0000
     12 C15       111.9340  106.7410  128.6040 C.3       1 8D0424      0.0000
     13 C16       112.8660  106.3620  126.3030 C.3       1 8D0424      0.0000
     14 C17       111.2570  113.1500  125.5230 C.3       1 8D0424      0.0000
     15 C18       110.8600  113.6060  126.9610 C.3       1 8D0424      0.0000
     16 C19       110.5340  114.0300  124.4820 C.3       1 8D0424      0.0000
     17 C20       112.7690  113.3310  125.3120 C.3       1 8D0424      0.0000
     18 C21       109.3350  113.6380  127.0950 C.3       1 8D0424      0.0000
     19 C22       108.9040  113.1070  128.4690 C.3       1 8D0424      0.0000
     20 C23       108.2000  114.2320  129.2400 C.3       1 8D0424      0.0000
     21 C24       107.5060  113.6400  130.4860 C.3       1 8D0424      0.0000
     22 C25       106.5890  112.6090  130.0260 C.1       1 8D0424      0.0000
     23 C6        111.3820  109.3780  126.1360 C.ar      1 8D0424      0.0000
     24 C7        110.3030  107.3410  125.1500 C.3       1 8D0424      0.0000
     25 C8        110.4170  106.8110  126.6100 C.3       1 8D0424      0.0000
     26 C9        111.8230  107.1280  127.1250 C.3       1 8D0424      0.0000
     27 O1        112.0570  108.5590  127.0080 O.3       1 8D0424      0.0000
     28 O2        106.7830  103.7510  124.2140 O.3       1 8D0424      0.0000
     29 O3        108.9710  109.5830  123.3400 O.3       1 8D0424      0.0000
@<TRIPOS>BOND
     1    1    2 ar
     2    1   23 ar
     3    2    3 ar
     4    2   14 1
     5    3    4 ar
     6    4    5 ar
     7    4   29 1
     8    5   23 ar
     9    5   24 1
    10    6   22 3
    11    7    8 1
    12    7   24 1
    13    8    9 1
    14    8   11 1
    15    9   10 1
    16   10   25 1
    17   11   28 1
    18   12   26 1
    19   13   26 1
    20   14   15 1
    21   14   16 1
    22   14   17 1
    23   15   18 1
    24   18   19 1
    25   19   20 1
    26   20   21 1
    27   21   22 1
    28   23   27 1
    29   24   25 1
    30   25   26 1
    31   26   27 1
@<TRIPOS>SUBSTRUCTURE
     1 8D0424      1 RESIDUE           4 R     8D0     0 ROOT
