@<TRIPOS>MOLECULE
8D0
31 33 1 0 0
SMALL
NO_CHARGES


@<TRIPOS>ATOM
      1 C1        103.7150  143.4570  132.9410 C.ar      1 8D0518      0.0000
      2 C2        103.8340  144.1130  131.7000 C.ar      1 8D0518      0.0000
      3 C3        103.1840  145.3450  131.5120 C.ar      1 8D0518      0.0000
      4 C4        102.4190  145.9400  132.5390 C.ar      1 8D0518      0.0000
      5 C5        102.2990  145.2740  133.8130 C.ar      1 8D0518      0.0000
      6 N1        110.5890  144.3650  134.2100 N.pl3     1 8D0518      0.0000
      7 C10       101.5590  147.4150  135.2640 C.3       1 8D0518      0.0000
      8 C11       100.7610  147.8400  136.4870 C.3       1 8D0518      0.0000
      9 C12       101.3310  147.1620  137.7190 C.3       1 8D0518      0.0000
     10 C13       101.1630  145.6590  137.5390 C.3       1 8D0518      0.0000
     11 C14       100.8410  149.3560  136.6430 C.3       1 8D0518      0.0000
     12 C15       102.6440  143.1790  137.4710 C.3       1 8D0518      0.0000
     13 C16       100.6440  143.1320  136.0110 C.3       1 8D0518      0.0000
     14 C17       104.6570  143.5320  130.5550 C.3       1 8D0518      0.0000
     15 C18       106.0730  144.1550  130.6070 C.3       1 8D0518      0.0000
     16 C19       104.7410  142.0120  130.6380 C.3       1 8D0518      0.0000
     17 C20       103.9860  143.8930  129.2390 C.3       1 8D0518      0.0000
     18 C21       106.9970  143.5270  131.6720 C.3       1 8D0518      0.0000
     19 C22       108.4180  144.0740  131.6410 C.3       1 8D0518      0.0000
     20 C23       108.5250  145.5010  132.1770 C.3       1 8D0518      0.0000
     21 C24       109.9870  145.8960  132.4430 C.3       1 8D0518      0.0000
     22 C25       110.3360  145.7370  133.9280 C.3       1 8D0518      0.0000
     23 C6        102.9620  144.0190  133.9900 C.ar      1 8D0518      0.0000
     24 C7        101.4820  145.8390  135.0100 C.3       1 8D0518      0.0000
     25 C8        102.0000  145.2200  136.2520 C.3       1 8D0518      0.0000
     26 C9        102.0540  143.7070  136.1720 C.3       1 8D0518      0.0000
     27 O1        102.9230  143.2790  135.1440 O.3       1 8D0518      0.0000
     28 O2         99.5300  149.8240  136.8670 O.3       1 8D0518      0.0000
     29 O3        101.8420  147.1510  132.1660 O.3       1 8D0518      0.0000
     30 C26       111.1150  144.0460  135.2430 C.2       1 8D0518      0.0000
     31 S1        111.8100  143.6030  136.5940 S.2       1 8D0518      0.0000
@<TRIPOS>BOND
     1    1    2 ar
     2    1   23 ar
     3    2    3 ar
     4    2   14 1
     5    3    4 ar
     6    4    5 ar
     7    4   29 1
     8    5   23 ar
     9    5   24 1
    10    6   22 1
    11    6   30 2
    12    7    8 1
    13    7   24 1
    14    8    9 1
    15    8   11 1
    16    9   10 1
    17   10   25 1
    18   11   28 1
    19   12   26 1
    20   13   26 1
    21   14   15 1
    22   14   16 1
    23   14   17 1
    24   15   18 1
    25   18   19 1
    26   19   20 1
    27   20   21 1
    28   21   22 1
    29   23   27 1
    30   24   25 1
    31   25   26 1
    32   26   27 1
    33   30   31 2
@<TRIPOS>SUBSTRUCTURE
     1 8D0518      1 RESIDUE           4 R     8D0     0 ROOT
