# created with PyMOL 2.3.5
@<TRIPOS>MOLECULE
8D0
72 74 1 0 0
SMALL
USER_CHARGES


@<TRIPOS>ATOM
      1 C1         -1.4350    1.9890   -0.2990 C.2       1 8D01        0.0000
      2 C2         -0.3440    1.1870   -0.0290 C.2       1 8D01        0.0000
      3 C3         -0.5280   -0.1280    0.3520 C.2       1 8D01        0.0000
      4 C4         -1.8120   -0.6400    0.4670 C.2       1 8D01        0.0000
      5 C5         -2.9110    0.1640    0.2010 C.2       1 8D01        0.0000
      6 N1          9.3250   -0.8450    0.8730 N.2       1 8D01        0.0000
      7 C10        -4.3740   -1.8520   -0.1080 C.3       1 8D01        0.0000
      8 C11        -5.7980   -2.3660    0.1350 C.3       1 8D01        0.0000
      9 C12        -6.8050   -1.5120   -0.6340 C.3       1 8D01        0.0000
     10 C13        -6.6930   -0.0450   -0.2040 C.3       1 8D01        0.0000
     11 C14        -5.9000   -3.8180   -0.3350 C.3       1 8D01        0.0000
     12 C15        -5.2570    2.0700    1.4130 C.3       1 8D01        0.0000
     13 C16        -6.1210    2.7640   -0.8310 C.3       1 8D01        0.0000
     14 C17         1.0490    1.7470   -0.1500 C.3       1 8D01        0.0000
     15 C18         2.0680    0.6610    0.2020 C.3       1 8D01        0.0000
     16 C19         1.2850    2.2220   -1.5860 C.3       1 8D01        0.0000
     17 C20         1.2100    2.9280    0.8100 C.3       1 8D01        0.0000
     18 C21         3.4830    1.2300    0.0780 C.3       1 8D01        0.0000
     19 C22         4.5020    0.1440    0.4300 C.3       1 8D01        0.0000
     20 C23         5.9170    0.7120    0.3070 C.3       1 8D01        0.0000
     21 C24         6.9350   -0.3740    0.6590 C.3       1 8D01        0.0000
     22 C25         8.3500    0.1950    0.5360 C.3       1 8D01        0.0000
     23 C6         -2.7260    1.4820   -0.1900 C.2       1 8D01        0.0000
     24 C7         -4.2950   -0.3990    0.3490 C.3       1 8D01        0.0000
     25 C8         -5.2720    0.4370   -0.4820 C.3       1 8D01        0.0000
     26 C9         -5.0880    1.9050   -0.0990 C.3       1 8D01        0.0000
     27 O1         -3.7690    2.3030   -0.4790 O.3       1 8D01        0.0000
     28 O2         -7.1900   -4.3360   -0.0030 O.3       1 8D01        0.0000
     29 O3         -1.9950   -1.9340    0.8410 O.3       1 8D01        0.0000
     30 H1         -1.2850    3.0170   -0.5930 H         1 8D01        0.0000
     31 H2          0.3260   -0.7560    0.5600 H         1 8D01        0.0000
     32 H6         -3.6660   -2.4540    0.4610 H         1 8D01        0.0000
     33 H7         -4.1390   -1.9140   -1.1710 H         1 8D01        0.0000
     34 H8         -6.0220   -2.3160    1.2010 H         1 8D01        0.0000
     35 H9         -6.6050   -1.5920   -1.7030 H         1 8D01        0.0000
     36 H10        -7.8140   -1.8720   -0.4310 H         1 8D01        0.0000
     37 H11        -7.4020    0.5580   -0.7730 H         1 8D01        0.0000
     38 H12        -6.9110    0.0420    0.8600 H         1 8D01        0.0000
     39 H13        -5.7580   -3.8610   -1.4150 H         1 8D01        0.0000
     40 H14        -5.1320   -4.4140    0.1570 H         1 8D01        0.0000
     41 H15        -4.5110    1.4660    1.9300 H         1 8D01        0.0000
     42 H16        -5.1250    3.1180    1.6810 H         1 8D01        0.0000
     43 H17        -6.2550    1.7430    1.7050 H         1 8D01        0.0000
     44 H18        -7.1250    2.4410   -0.5530 H         1 8D01        0.0000
     45 H19        -5.9860    3.8100   -0.5540 H         1 8D01        0.0000
     46 H20        -5.9890    2.6530   -1.9070 H         1 8D01        0.0000
     47 H21         1.9000    0.3230    1.2240 H         1 8D01        0.0000
     48 H22         1.9540   -0.1800   -0.4820 H         1 8D01        0.0000
     49 H23         2.2930    2.6270   -1.6730 H         1 8D01        0.0000
     50 H24         1.1710    1.3810   -2.2700 H         1 8D01        0.0000
     51 H25         0.5600    2.9960   -1.8360 H         1 8D01        0.0000
     52 H26         1.0420    2.5890    1.8320 H         1 8D01        0.0000
     53 H27         2.2180    3.3330    0.7220 H         1 8D01        0.0000
     54 H28         0.4850    3.7010    0.5590 H         1 8D01        0.0000
     55 H29         3.6510    1.5680   -0.9440 H         1 8D01        0.0000
     56 H30         3.5980    2.0700    0.7620 H         1 8D01        0.0000
     57 H31         4.3340   -0.1940    1.4530 H         1 8D01        0.0000
     58 H32         4.3870   -0.6970   -0.2540 H         1 8D01        0.0000
     59 H33         6.0850    1.0500   -0.7150 H         1 8D01        0.0000
     60 H34         6.0310    1.5530    0.9910 H         1 8D01        0.0000
     61 H35         6.7670   -0.7120    1.6810 H         1 8D01        0.0000
     62 H36         6.8210   -1.2150   -0.0250 H         1 8D01        0.0000
     63 H37         8.4650    1.0360    1.2200 H         1 8D01        0.0000
     64 H38         8.5180    0.5330   -0.4870 H         1 8D01        0.0000
     65 H39        -4.5920   -0.3390    1.3960 H         1 8D01        0.0000
     66 H40        -5.0490    0.3090   -1.5410 H         1 8D01        0.0000
     67 H41        -7.3260   -5.2550   -0.2730 H         1 8D01        0.0000
     68 H42        -2.0710   -2.0600    1.7970 H         1 8D01        0.0000
     69 C26        10.1730   -1.2050    0.0270 C.1       1 8D01        0.0000
     70 S1         11.2270   -1.6510   -1.0230 S.2       1 8D01        0.0000
@<TRIPOS>BOND
     1   20   21 1
     2   19   20 1
     3   21   22 1
     4   14   16 1
     5   18   19 1
     6   15   18 1
     7   14   15 1
     8    6   22 1
     9   14   17 1
    10    2   14 1
    11    2    3 2
    12    3    4 1
    13    4   29 1
    14    1    2 1
    15    4    5 2
    16   11   28 1
    17    1   23 2
    18    5   23 1
    19    5   24 1
    20    7   24 1
    21    7    8 1
    22   23   27 1
    23    8   11 1
    24   24   25 1
    25    8    9 1
    26   26   27 1
    27   25   26 1
    28   10   25 1
    29    9   10 1
    30   12   26 1
    31   13   26 1
    32    1   30 1
    33    3   31 1
    34    7   32 1
    35    7   33 1
    36    8   34 1
    37    9   35 1
    38    9   36 1
    39   10   37 1
    40   10   38 1
    41   11   39 1
    42   11   40 1
    43   12   41 1
    44   12   42 1
    45   12   43 1
    46   13   44 1
    47   13   45 1
    48   13   46 1
    49   15   47 1
    50   15   48 1
    51   16   49 1
    52   16   50 1
    53   16   51 1
    54   17   52 1
    55   17   53 1
    56   17   54 1
    57   18   55 1
    58   18   56 1
    59   19   57 1
    60   19   58 1
    61   20   59 1
    62   20   60 1
    63   21   61 1
    64   21   62 1
    65   22   63 1
    66   22   64 1
    67   24   65 1
    68   25   66 1
    69   28   67 1
    70   29   68 1
    71    6   69 2
    72   69   70 2
@<TRIPOS>SUBSTRUCTURE
     1 8D01        1 RESIDUE           4 A     8D0     0 ROOT
