@<TRIPOS>MOLECULE
V0S
34 37 1 0 0
SMALL
NO_CHARGES


@<TRIPOS>ATOM
      1 C10       106.1230  143.0270  146.3950 C.3       1 V0S658      0.0000
      2 C14       105.4080  144.4120  148.3310 C.3       1 V0S658      0.0000
      3 C13       105.4410  144.3210  146.8030 C.3       1 V0S658      0.0000
      4 C12       107.1910  141.9450  144.3540 C.3       1 V0S658      0.0000
      5 C15       103.3520  143.7070  151.0950 C.2       1 V0S658      0.0000
      6 C17       102.8160  142.7760  153.4810 C.ar      1 V0S658      0.0000
      7 C19       103.0280  143.1940  154.8970 C.ar      1 V0S658      0.0000
      8 C20       103.6700  144.4130  155.0690 C.ar      1 V0S658      0.0000
      9 C21       103.9110  144.8960  156.3650 C.ar      1 V0S658      0.0000
     10 C24       102.8510  142.9080  157.2990 C.ar      1 V0S658      0.0000
     11 C03       105.3850  140.5710  151.7290 C.ar      1 V0S658      0.0000
     12 C04       105.7880  141.8460  152.1750 C.ar      1 V0S658      0.0000
     13 C05       105.8940  143.0730  151.1640 C.3       1 V0S658      0.0000
     14 C07       104.5800  143.2580  148.8950 C.3       1 V0S658      0.0000
     15 C08       105.0560  141.9030  148.3910 C.3       1 V0S658      0.0000
     16 C09       105.2420  141.8790  146.8690 C.3       1 V0S658      0.0000
     17 C16       103.3510  143.7880  152.6310 C.ar      1 V0S658      0.0000
     18 C23       103.5030  144.1340  157.4690 C.ar      1 V0S658      0.0000
     19 C25       102.6130  142.4360  156.0170 C.ar      1 V0S658      0.0000
     20 C29       106.0720  142.0500  153.5440 C.ar      1 V0S658      0.0000
     21 C30       105.9800  140.9820  154.4800 C.ar      1 V0S658      0.0000
     22 C31       106.2750  141.1930  156.0130 C.ar      1 V0S658      0.0000
     23 C32       106.2470  142.4720  156.5760 C.ar      1 V0S658      0.0000
     24 C33       106.4910  142.6310  157.9470 C.ar      1 V0S658      0.0000
     25 C35       106.7650  140.3680  158.2420 C.ar      1 V0S658      0.0000
     26 C36       106.5310  140.1140  156.8830 C.ar      1 V0S658      0.0000
     27 C37       105.5770  139.7170  154.0060 C.ar      1 V0S658      0.0000
     28 C38       105.2870  139.5120  152.6390 C.ar      1 V0S658      0.0000
     29 N06       104.6120  143.3420  150.3910 N.am      1 V0S658      0.0000
     30 N11       106.2920  142.9370  144.9390 N.4       1 V0S658      0.0000
     31 N34       106.7360  141.5910  158.7350 N.ar      1 V0S658      0.0000
     32 O28       102.3390  143.9170  150.5120 O.2       1 V0S658      0.0000
     33 S27       104.0150  145.0230  153.5500 S.2       1 V0S658      0.0000
     34 CL18      102.0280  141.2690  152.9370 C         1 V0S658      0.0000
@<TRIPOS>BOND
     1    1    3 1
     2    1   16 1
     3    1   30 1
     4    2    3 1
     5    2   14 1
     6    4   30 1
     7    5   17 1
     8    5   29 am
     9    5   32 2
    10    6    7 ar
    11    6   17 ar
    12    7    8 ar
    13    7   19 ar
    14    8    9 ar
    15    8   33 ar
    16    9   18 ar
    17   10   18 ar
    18   10   19 ar
    19   11   12 ar
    20   11   28 ar
    21   12   13 1
    22   12   20 ar
    23   13   29 1
    24   14   15 1
    25   14   29 1
    26   15   16 1
    27   17   33 ar
    28   20   21 ar
    29   21   22 1
    30   21   27 ar
    31   22   23 ar
    32   22   26 ar
    33   23   24 ar
    34   24   31 ar
    35   25   26 ar
    36   25   31 ar
    37   27   28 ar
@<TRIPOS>SUBSTRUCTURE
     1 V0S658      1 RESIDUE           4 R     V0S     0 ROOT
