# created with PyMOL 2.3.5
@<TRIPOS>MOLECULE
DOK
51 54 1 0 0
SMALL
USER_CHARGES


@<TRIPOS>ATOM
      1 C11        -4.8830   -0.0780   -0.2450 C.2       1 DOK1        0.0000
      2 C15        -6.5000   -1.6420   -1.0730 C.2       1 DOK1        0.0000
      3 C16        -5.7750   -2.6850   -0.5260 C.2       1 DOK1        0.0000
      4 C17        -4.5980   -2.4310    0.1530 C.2       1 DOK1        0.0000
      5 C18         1.9590    1.5030   -0.5510 C.3       1 DOK1        0.0000
      6 C19         3.6420    0.1800    0.7470 C.2       1 DOK1        0.0000
      7 C20         2.6980   -0.7900   -1.2280 C.2       1 DOK1        0.0000
      8 C21         2.8820    2.7130   -0.7120 C.3       1 DOK1        0.0000
      9 C22         4.4030   -0.9560    0.9430 C.2       1 DOK1        0.0000
     10 C23         3.4670   -1.9230   -1.0400 C.2       1 DOK1        0.0000
     11 C24         3.8770    2.4480   -1.8430 C.3       1 DOK1        0.0000
     12 C25         2.0460    3.9500   -1.0470 C.3       1 DOK1        0.0000
     13 C26         4.3170   -2.0090    0.0490 C.2       1 DOK1        0.0000
     14 C1         -0.5930    0.2410   -0.4080 C.3       1 DOK1        0.0000
     15 C2         -1.9930    0.7110   -0.8180 C.3       1 DOK1        0.0000
     16 C3         -2.9050    0.7140    0.4050 C.3       1 DOK1        0.0000
     17 C4         -2.3660    1.6510    1.4800 C.3       1 DOK1        0.0000
     18 C5         -0.9690    1.1880    1.9070 C.3       1 DOK1        0.0000
     19 N6         -0.1250    1.0710    0.7100 N.pl3     1 DOK1        0.0000
     20 C7          1.0580    1.7140    0.6380 C.2       1 DOK1        0.0000
     21 O8          1.3960    2.4620    1.5310 O.2       1 DOK1        0.0000
     22 C9          2.7890    0.2640   -0.3380 C.2       1 DOK1        0.0000
     23 O10        -4.2370    1.0940    0.0310 O.3       1 DOK1        0.0000
     24 C12        -4.1500   -1.1290    0.3010 C.2       1 DOK1        0.0000
     25 O13        -3.0460   -0.6160    0.9210 O.3       1 DOK1        0.0000
     26 C14        -6.0560   -0.3400   -0.9340 C.2       1 DOK1        0.0000
     27 CL          5.2730   -3.4370    0.2940 Cl        1 DOK1        0.0000
     28 H1         -7.4140   -1.8450   -1.6110 H         1 DOK1        0.0000
     29 H2         -6.1260   -3.7010   -0.6370 H         1 DOK1        0.0000
     30 H3         -4.0350   -3.2480    0.5800 H         1 DOK1        0.0000
     31 H4          1.3540    1.3850   -1.4490 H         1 DOK1        0.0000
     32 H5          3.7090    1.0020    1.4450 H         1 DOK1        0.0000
     33 H6          2.0320   -0.7250   -2.0760 H         1 DOK1        0.0000
     34 H7          3.4250    2.8820    0.2180 H         1 DOK1        0.0000
     35 H8          5.0660   -1.0230    1.7930 H         1 DOK1        0.0000
     36 H9          3.3950   -2.7460   -1.7350 H         1 DOK1        0.0000
     37 H10         3.3340    2.2790   -2.7730 H         1 DOK1        0.0000
     38 H11         4.5350    3.3100   -1.9580 H         1 DOK1        0.0000
     39 H12         4.4730    1.5670   -1.6040 H         1 DOK1        0.0000
     40 H13         1.4000    4.1920   -0.2030 H         1 DOK1        0.0000
     41 H14         2.7090    4.7920   -1.2500 H         1 DOK1        0.0000
     42 H15         1.4350    3.7490   -1.9270 H         1 DOK1        0.0000
     43 H16        -0.6350   -0.8030   -0.0960 H         1 DOK1        0.0000
     44 H17         0.0880    0.3420   -1.2530 H         1 DOK1        0.0000
     45 H18        -1.9320    1.7190   -1.2280 H         1 DOK1        0.0000
     46 H19        -2.3980    0.0360   -1.5720 H         1 DOK1        0.0000
     47 H20        -2.3090    2.6640    1.0840 H         1 DOK1        0.0000
     48 H21        -3.0330    1.6350    2.3430 H         1 DOK1        0.0000
     49 H22        -0.5350    1.9180    2.5900 H         1 DOK1        0.0000
     50 H23        -1.0390    0.2190    2.4000 H         1 DOK1        0.0000
     51 H24        -6.6240    0.4720   -1.3620 H         1 DOK1        0.0000
@<TRIPOS>BOND
     1    3    4 2
     2    4   24 1
     3    2    3 1
     4    8   12 1
     5   24   25 1
     6   16   25 1
     7    1   24 2
     8   18   19 1
     9   17   18 1
    10    2   26 2
    11    5    8 1
    12    5   20 1
    13    5   22 1
    14   19   20 1
    15   14   19 1
    16   16   17 1
    17    8   11 1
    18    7   22 2
    19    7   10 1
    20   16   23 1
    21   15   16 1
    22   20   21 2
    23   14   15 1
    24    1   26 1
    25    1   23 1
    26    6   22 1
    27   10   13 2
    28    6    9 2
    29    9   13 1
    30   13   27 1
    31    2   28 1
    32    3   29 1
    33    4   30 1
    34    5   31 1
    35    6   32 1
    36    7   33 1
    37    8   34 1
    38    9   35 1
    39   10   36 1
    40   11   37 1
    41   11   38 1
    42   11   39 1
    43   12   40 1
    44   12   41 1
    45   12   42 1
    46   14   43 1
    47   14   44 1
    48   15   45 1
    49   15   46 1
    50   17   47 1
    51   17   48 1
    52   18   49 1
    53   18   50 1
    54   26   51 1
@<TRIPOS>SUBSTRUCTURE
     1 DOK1        1 RESIDUE           4 A     DOK     0 ROOT
