@<TRIPOS>MOLECULE
GBK
47 49 1 0 0 
SMALL
USER_CHARGES


@<TRIPOS>ATOM
  1 C10    -83.6930    63.1530   367.3130 C.3   1 GBK  -0.1600 
  2 H101   -83.0487    63.9693   366.9865 H     1 GBK   0.0800 
  3 H102   -83.1199    62.2262   367.3395 H     1 GBK   0.0800 
  4 C13    -86.1230    62.6100   367.0290 C.3   1 GBK   0.5665 
  5 H13    -85.9613    61.7516   367.6811 H     1 GBK   0.0800 
  6 C17    -87.1610    62.2650   365.9570 C.ar  1 GBK  -0.1435 
  7 C20    -89.0270    61.6240   364.0110 C.ar  1 GBK  -0.1500 
  8 H20    -89.7553    61.3724   363.2542 H     1 GBK   0.1500 
  9 C21    -88.9480    62.9210   364.4910 C.ar  1 GBK  -0.1500 
 10 H21    -89.6136    63.6805   364.1082 H     1 GBK   0.1500 
 11 C22    -88.0140    63.2430   365.4630 C.ar  1 GBK  -0.1500 
 12 H22    -87.9496    64.2544   365.8362 H     1 GBK   0.1500 
 13 C01    -80.9810    63.0630   362.1770 C.3   1 GBK   0.0400 
 14 H011   -79.9780    63.1283   362.5986 H     1 GBK   0.0800 
 15 H012   -81.0119    63.5985   361.2281 H     1 GBK   0.0800 
 16 H013   -81.2385    62.0167   362.0123 H     1 GBK   0.0800 
 17 C02    -83.2240    63.6070   362.6260 C.ar  1 GBK   0.0825 
 18 C03    -83.5470    63.1330   361.3660 C.ar  1 GBK  -0.1500 
 19 H03    -82.7682    62.7784   360.7071 H     1 GBK   0.1500 
 20 C04    -84.8690    63.1130   360.9490 C.ar  1 GBK  -0.1500 
 21 H04    -85.1162    62.7389   359.9665 H     1 GBK   0.1500 
 22 C05    -85.8750    63.5700   361.7850 C.ar  1 GBK  -0.1500 
 23 H05    -86.9042    63.5568   361.4579 H     1 GBK   0.1500 
 24 C06    -85.5480    64.0430   363.0420 C.ar  1 GBK  -0.1500 
 25 H06    -86.3258    64.3969   363.7025 H     1 GBK   0.1500 
 26 C07    -84.2270    64.0650   363.4580 C.ar  1 GBK  -0.1435 
 27 C08    -83.8980    64.5910   364.8440 C.3   1 GBK   0.2535 
 28 H081   -83.7344    65.6683   364.8145 H     1 GBK   0.0800 
 29 H082   -83.0085    64.0991   365.2377 H     1 GBK   0.0800 
 30 C09    -84.8370    62.9990   366.3220 C.3   1 GBK   0.1900 
 31 H09    -84.5765    62.2172   365.6085 H     1 GBK   0.0800 
 32 C11    -84.2090    63.4590   368.7200 C.3   1 GBK  -0.1600 
 33 H111   -83.4514    64.0348   369.2516 H     1 GBK   0.0800 
 34 H112   -84.3812    62.5170   369.2407 H     1 GBK   0.0800 
 35 C12    -85.5310    64.2690   368.7100 C.3   1 GBK   0.3430 
 36 H121   -85.3063    65.2794   368.3684 H     1 GBK   0.0800 
 37 H122   -85.9125    64.3069   369.7303 H     1 GBK   0.0800 
 38 N14    -85.0490    64.2770   365.6540 N.3   1 GBK  -0.9000 
 39 H14    -85.8685    64.2183   365.0666 H     1 GBK   0.3600 
 40 N15    -86.5870    63.7200   367.8480 N.4   1 GBK  -0.9060 
 41 H152   -86.9209    64.4534   367.2391 H     1 GBK   0.4500 
 42 H151   -87.3448    63.3961   368.4318 H     1 GBK   0.4500 
 43 O16    -81.8970    63.6340   363.0640 O.3   1 GBK  -0.3625 
 44 C18    -87.2400    60.9680   365.4730 C.ar  1 GBK  -0.1500 
 45 H18    -86.5745    60.2077   365.8543 H     1 GBK   0.1500 
 46 C19    -88.1720    60.6480   364.5010 C.ar  1 GBK  -0.1500 
 47 H19    -88.2335    59.6378   364.1239 H     1 GBK   0.1500 
@<TRIPOS>BOND
  1   1   2  1   
  2   1   3  1   
  3   1  30  1   
  4   1  32  1   
  5   4   5  1   
  6   4   6  1   
  7   4  30  1   
  8   4  40  1   
  9   6  11  ar  
 10   6  44  ar  
 11   7   8  1   
 12   7   9  ar  
 13   7  46  ar  
 14   9  10  1   
 15   9  11  ar  
 16  11  12  1   
 17  13  14  1   
 18  13  15  1   
 19  13  16  1   
 20  13  43  1   
 21  17  18  ar  
 22  17  26  ar  
 23  17  43  1   
 24  18  19  1   
 25  18  20  ar  
 26  20  21  1   
 27  20  22  ar  
 28  22  23  1   
 29  22  24  ar  
 30  24  25  1   
 31  24  26  ar  
 32  26  27  1   
 33  27  28  1   
 34  27  29  1   
 35  27  38  1   
 36  30  31  1   
 37  30  38  1   
 38  32  33  1   
 39  32  34  1   
 40  32  35  1   
 41  35  36  1   
 42  35  37  1   
 43  35  40  1   
 44  38  39  1   
 45  40  41  1   
 46  40  42  1   
 47  44  45  1   
 48  44  46  ar  
 49  46  47  1   
@<TRIPOS>SUBSTRUCTURE
  1 GBK  38 GROUP 4 L **** 0

# MOE 2019.01 (io_trps.svl 2018.10)
