# created with PyMOL 2.3.5
@<TRIPOS>MOLECULE
GBK
48 50 1 0 0
SMALL
USER_CHARGES


@<TRIPOS>ATOM
      1 C10         0.6640    2.6830   -1.1810 C.3       1 GBK1        0.0000
      2 C13         2.3510    1.1690   -0.1330 C.3       1 GBK1        0.0000
      3 C17         2.7720   -0.2660    0.0510 C.2       1 GBK1        0.0000
      4 C20         3.5440   -2.8990    0.3880 C.2       1 GBK1        0.0000
      5 C21         4.1900   -2.1030   -0.5390 C.2       1 GBK1        0.0000
      6 C22         3.8040   -0.7860   -0.7080 C.2       1 GBK1        0.0000
      7 C01        -4.2090    1.8600    0.6190 C.3       1 GBK1        0.0000
      8 C02        -3.0770   -0.1200   -0.0520 C.2       1 GBK1        0.0000
      9 C03        -4.0800   -0.8400    0.5800 C.2       1 GBK1        0.0000
     10 C04        -4.0470   -2.2210    0.5730 C.2       1 GBK1        0.0000
     11 C05        -3.0150   -2.8860   -0.0620 C.2       1 GBK1        0.0000
     12 C06        -2.0130   -2.1710   -0.6930 C.2       1 GBK1        0.0000
     13 C07        -2.0420   -0.7900   -0.6890 C.2       1 GBK1        0.0000
     14 C08        -0.9500   -0.0110   -1.3770 C.3       1 GBK1        0.0000
     15 C09         1.1000    1.2250   -1.0130 C.3       1 GBK1        0.0000
     16 C11         0.4100    3.2930    0.2000 C.3       1 GBK1        0.0000
     17 C12         1.6810    3.1780    1.0450 C.3       1 GBK1        0.0000
     18 N14         0.0190    0.4600   -0.3780 N.3       1 GBK1        0.0000
     19 N15         2.0560    1.7640    1.1760 N.3       1 GBK1        0.0000
     20 O16        -3.1100    1.2380   -0.0520 O.3       1 GBK1        0.0000
     21 C18         2.1300   -1.0610    0.9820 C.2       1 GBK1        0.0000
     22 C19         2.5160   -2.3770    1.1510 C.2       1 GBK1        0.0000
     23 H1          1.4510    3.2420   -1.6880 H         1 GBK1        0.0000
     24 H2         -0.2510    2.7240   -1.7720 H         1 GBK1        0.0000
     25 H3          3.1570    1.7260   -0.6120 H         1 GBK1        0.0000
     26 H4          3.8460   -3.9280    0.5200 H         1 GBK1        0.0000
     27 H5          4.9970   -2.5090   -1.1310 H         1 GBK1        0.0000
     28 H6          4.3080   -0.1640   -1.4320 H         1 GBK1        0.0000
     29 H7         -5.1430    1.5440    0.1550 H         1 GBK1        0.0000
     30 H8         -4.2070    1.5670    1.6680 H         1 GBK1        0.0000
     31 H9         -4.1140    2.9430    0.5440 H         1 GBK1        0.0000
     32 H10        -4.8870   -0.3220    1.0760 H         1 GBK1        0.0000
     33 H11        -4.8280   -2.7820    1.0650 H         1 GBK1        0.0000
     34 H12        -2.9910   -3.9660   -0.0670 H         1 GBK1        0.0000
     35 H13        -1.2070   -2.6930   -1.1880 H         1 GBK1        0.0000
     36 H14        -0.4450   -0.6530   -2.0980 H         1 GBK1        0.0000
     37 H15        -1.3850    0.8450   -1.8930 H         1 GBK1        0.0000
     38 H16         1.3240    0.7970   -1.9910 H         1 GBK1        0.0000
     39 H17         0.1410    4.3440    0.0900 H         1 GBK1        0.0000
     40 H18        -0.4030    2.7590    0.6900 H         1 GBK1        0.0000
     41 H19         2.4900    3.7250    0.5610 H         1 GBK1        0.0000
     42 H20         1.4990    3.5990    2.0340 H         1 GBK1        0.0000
     43 H21         0.3880   -0.3110    0.1590 H         1 GBK1        0.0000
     44 H23         2.8360    1.6540    1.8070 H         1 GBK1        0.0000
     45 H25         1.3270   -0.6530    1.5780 H         1 GBK1        0.0000
     46 H26         2.0150   -2.9980    1.8780 H         1 GBK1        0.0000
     47 HN2        -0.4659    1.0771    0.2578 H         1 GBK1        0.0000
     48 HN3         1.2678    1.2702    1.5696 H         1 GBK1        0.0000
@<TRIPOS>BOND
     1   16   17 1
     2   17   19 1
     3    1   16 1
     4    2   19 1
     5    1   15 1
     6    2   15 1
     7    2    3 1
     8   15   18 1
     9    3    6 2
    10    3   21 1
    11   14   18 1
    12    5    6 1
    13   21   22 2
    14   13   14 1
    15    4    5 2
    16    4   22 1
    17   12   13 2
    18    8   13 1
    19    8   20 1
    20    7   20 1
    21   11   12 1
    22    8    9 2
    23   10   11 2
    24    9   10 1
    25    1   23 1
    26    1   24 1
    27    2   25 1
    28    4   26 1
    29    5   27 1
    30    6   28 1
    31    7   29 1
    32    7   30 1
    33    7   31 1
    34    9   32 1
    35   10   33 1
    36   11   34 1
    37   12   35 1
    38   14   36 1
    39   14   37 1
    40   15   38 1
    41   16   39 1
    42   16   40 1
    43   17   41 1
    44   17   42 1
    45   18   43 1
    46   19   44 1
    47   21   45 1
    48   22   46 1
    49   47   18 1
    50   48   19 1
@<TRIPOS>SUBSTRUCTURE
     1 GBK1        1 RESIDUE           4 A     GBK     0 ROOT
