# created with PyMOL 2.3.5
@<TRIPOS>MOLECULE
ZOT
41 43 1 0 0
SMALL
USER_CHARGES


@<TRIPOS>ATOM
      1 H01        -3.7160   -0.7640   -0.8120 H         1 ZOT1        0.0000
      2 C1         -0.1980    3.2350    0.2210 C.2       1 ZOT1        0.0000
      3 C10         1.8560   -1.6630    0.6180 C.2       1 ZOT1        0.0000
      4 C11         2.6320   -1.1290   -0.5120 C.2       1 ZOT1        0.0000
      5 C12         1.0150    1.0470   -1.0120 C.2       1 ZOT1        0.0000
      6 C13         1.3850    2.4220   -1.4020 C.2       1 ZOT1        0.0000
      7 C14         0.8170    3.4560   -0.8240 C.2       1 ZOT1        0.0000
      8 C15         3.9400   -1.2690   -0.5450 C.2       1 ZOT1        0.0000
      9 C16         4.6340   -1.9640    0.5530 C.2       1 ZOT1        0.0000
     10 C17         3.9430   -2.4440    1.5650 C.2       1 ZOT1        0.0000
     11 C18         2.4800   -2.2850    1.6000 C.2       1 ZOT1        0.0000
     12 C2         -0.5250    2.0140    0.5680 C.2       1 ZOT1        0.0000
     13 C3          0.1160    0.8440   -0.0800 C.2       1 ZOT1        0.0000
     14 C4         -0.2920   -0.4850    0.3630 C.2       1 ZOT1        0.0000
     15 C5         -2.0980   -1.9740    0.7940 C.3       1 ZOT1        0.0000
     16 C6         -3.6250   -1.9750    0.8770 C.3       1 ZOT1        0.0000
     17 C7         -3.8910   -2.7530   -1.4000 C.3       1 ZOT1        0.0000
     18 C8         -5.6350   -1.4340   -0.3610 C.3       1 ZOT1        0.0000
     19 C9          0.4040   -1.5080    0.6610 C.2       1 ZOT1        0.0000
     20 N1         -4.1880   -1.6760   -0.4460 N.3       1 ZOT1        0.0000
     21 O1         -1.6380   -0.6590    0.4750 O.3       1 ZOT1        0.0000
     22 S1          1.8010   -0.3030   -1.8270 S.3       1 ZOT1        0.0000
     23 CL1        -0.9550    4.5910    0.9970 Cl        1 ZOT1        0.0000
     24 H1          2.1300    2.5790   -2.1690 H         1 ZOT1        0.0000
     25 H2          1.0910    4.4600   -1.1130 H         1 ZOT1        0.0000
     26 H3          4.5050   -0.8740   -1.3760 H         1 ZOT1        0.0000
     27 H4          5.7070   -2.0800    0.5280 H         1 ZOT1        0.0000
     28 H5          4.4490   -2.9540    2.3710 H         1 ZOT1        0.0000
     29 H6          1.9150   -2.6790    2.4320 H         1 ZOT1        0.0000
     30 H7         -1.2690    1.8580    1.3350 H         1 ZOT1        0.0000
     31 H8         -1.6810   -2.2830    1.7530 H         1 ZOT1        0.0000
     32 H9         -1.7760   -2.6690    0.0180 H         1 ZOT1        0.0000
     33 H10        -3.9710   -2.9540    1.2070 H         1 ZOT1        0.0000
     34 H11        -3.9500   -1.2160    1.5900 H         1 ZOT1        0.0000
     35 H12        -4.3210   -3.6870   -1.0400 H         1 ZOT1        0.0000
     36 H13        -4.3190   -2.5060   -2.3720 H         1 ZOT1        0.0000
     37 H14        -2.8100   -2.8640   -1.4970 H         1 ZOT1        0.0000
     38 H15        -5.8230   -0.5860    0.2980 H         1 ZOT1        0.0000
     39 H16        -6.0260   -1.2150   -1.3540 H         1 ZOT1        0.0000
     40 H17        -6.1290   -2.3200    0.0380 H         1 ZOT1        0.0000
     41 H18        -0.1520   -2.3750    0.9900 H         1 ZOT1        0.0000
@<TRIPOS>BOND
     1    2   12 2
     2    3   11 2
     3    3   19 1
     4    3    4 1
     5    5   13 2
     6    5    6 1
     7    6   24 1
     8    2    7 1
     9    6    7 2
    10    7   25 1
    11    4    8 2
    12    8    9 1
    13    8   26 1
    14    9   10 2
    15    9   27 1
    16   10   11 1
    17   10   28 1
    18   11   29 1
    19   12   13 1
    20   12   30 1
    21   13   14 1
    22   14   19 2
    23   14   21 1
    24   15   31 1
    25   15   32 1
    26   15   16 1
    27   16   20 1
    28   16   33 1
    29   16   34 1
    30   17   20 1
    31   17   35 1
    32   17   36 1
    33   17   37 1
    34   18   38 1
    35   18   39 1
    36   18   40 1
    37   19   41 1
    38    1   20 1
    39   18   20 1
    40   15   21 1
    41    4   22 1
    42    5   22 1
    43    2   23 1
@<TRIPOS>SUBSTRUCTURE
     1 ZOT1        1 RESIDUE           4 A     ZOT     0 ROOT
