# created with PyMOL 2.3.5
@<TRIPOS>MOLECULE
SNP
41 42 1 0 0
SMALL
USER_CHARGES


@<TRIPOS>ATOM
      1 H01        -1.2090    1.1180    4.3860 H         1 SNP1        0.0000
      2 C1          0.2990    0.0720   -1.5440 C.2       1 SNP1        0.0000
      3 C2          1.6530    0.0350   -1.3610 C.2       1 SNP1        0.0000
      4 C3          2.5210   -0.0190   -2.4480 C.2       1 SNP1        0.0000
      5 C4          2.0460   -0.0360   -3.7250 C.2       1 SNP1        0.0000
      6 C5          0.1370   -0.0160   -5.2590 C.2       1 SNP1        0.0000
      7 C6         -1.2100    0.0200   -5.4440 C.2       1 SNP1        0.0000
      8 C7         -2.0820    0.0750   -4.3580 C.2       1 SNP1        0.0000
      9 C8         -1.6100    0.0940   -3.0810 C.2       1 SNP1        0.0000
     10 C9         -0.2260    0.0500   -2.8510 C.2       1 SNP1        0.0000
     11 C10         0.6610    0.0000   -3.9550 C.2       1 SNP1        0.0000
     12 O1         -0.5330    0.1260   -0.4720 O.3       1 SNP1        0.0000
     13 C11         0.2930    0.1300    0.6930 C.3       1 SNP1        0.0000
     14 C12        -0.5880    0.1890    1.9420 C.3       1 SNP1        0.0000
     15 O2         -1.4490   -0.9500    1.9720 O.3       1 SNP1        0.0000
     16 C13         0.2960    0.1930    3.1900 C.3       1 SNP1        0.0000
     17 N1         -0.5490    0.2500    4.3900 N.3       1 SNP1        0.0000
     18 C14         0.3560    0.2510    5.5460 C.3       1 SNP1        0.0000
     19 C15        -0.2890    1.0220    6.6990 C.3       1 SNP1        0.0000
     20 C16         0.6260   -1.1890    5.9840 C.3       1 SNP1        0.0000
     21 H2          2.0560    0.0480   -0.3590 H         1 SNP1        0.0000
     22 H3          3.5860   -0.0470   -2.2770 H         1 SNP1        0.0000
     23 H4          2.7330   -0.0790   -4.5570 H         1 SNP1        0.0000
     24 H5          0.8010   -0.0580   -6.1100 H         1 SNP1        0.0000
     25 H6         -1.6100    0.0070   -6.4470 H         1 SNP1        0.0000
     26 H7         -3.1470    0.1040   -4.5320 H         1 SNP1        0.0000
     27 H8         -2.2970    0.1370   -2.2500 H         1 SNP1        0.0000
     28 H112        0.9490    0.9990    0.6700 H         1 SNP1        0.0000
     29 H111        0.8940   -0.7780    0.7150 H         1 SNP1        0.0000
     30 H12        -1.1890    1.0980    1.9200 H         1 SNP1        0.0000
     31 H2O1       -0.8780   -1.7310    1.9910 H         1 SNP1        0.0000
     32 H132        0.9530    1.0630    3.1670 H         1 SNP1        0.0000
     33 H131        0.8970   -0.7150    3.2130 H         1 SNP1        0.0000
     34 H1         -1.0620   -0.6170    4.4240 H         1 SNP1        0.0000
     35 H14         1.2960    0.7290    5.2700 H         1 SNP1        0.0000
     36 H153        0.3830    1.0230    7.5570 H         1 SNP1        0.0000
     37 H152       -0.4810    2.0490    6.3870 H         1 SNP1        0.0000
     38 H151       -1.2290    0.5440    6.9750 H         1 SNP1        0.0000
     39 H163       -0.3140   -1.6670    6.2600 H         1 SNP1        0.0000
     40 H162        1.0850   -1.7380    5.1630 H         1 SNP1        0.0000
     41 H161        1.2980   -1.1880    6.8420 H         1 SNP1        0.0000
@<TRIPOS>BOND
     1    2    3 2
     2    2   10 1
     3    2   12 1
     4    3    4 1
     5    3   21 1
     6    4    5 2
     7    4   22 1
     8    5   11 1
     9    5   23 1
    10    6    7 2
    11    6   11 1
    12    6   24 1
    13    7    8 1
    14    7   25 1
    15    8    9 2
    16    8   26 1
    17    9   10 1
    18    9   27 1
    19   10   11 2
    20   12   13 1
    21   13   14 1
    22   13   28 1
    23   13   29 1
    24   14   15 1
    25   14   16 1
    26   14   30 1
    27   15   31 1
    28   16   17 1
    29   16   32 1
    30   16   33 1
    31    1   17 1
    32   17   18 1
    33   17   34 1
    34   18   19 1
    35   18   20 1
    36   18   35 1
    37   19   36 1
    38   19   37 1
    39   19   38 1
    40   20   39 1
    41   20   40 1
    42   20   41 1
@<TRIPOS>SUBSTRUCTURE
     1 SNP1        1 RESIDUE           4 A     SNP     0 ROOT
