# created with PyMOL 2.3.5
@<TRIPOS>MOLECULE
TWT
68 67 1                 
SMALL
USER_CHARGES
@<TRIPOS>ATOM
1	  C1	-0.376	-0.004	13.119	C.3	1	TWT0	0.000	
2	  C2	0.500	0.005	11.865	C.3	1	TWT0	0.000	
3	  C3	-0.389	-0.004	10.620	C.3	1	TWT0	0.000	
4	  C4	0.488	0.005	9.367	C.3	1	TWT0	0.000	
5	  C5	-0.401	-0.004	8.122	C.3	1	TWT0	0.000	
6	  C6	0.475	0.005	6.868	C.3	1	TWT0	0.000	
7	  C7	-0.413	-0.004	5.623	C.3	1	TWT0	0.000	
8	  C8	0.463	0.005	4.370	C.3	1	TWT0	0.000	
9	  C9	-0.426	-0.004	3.125	C.3	1	TWT0	0.000	
10	 C10	0.450	0.004	1.871	C.3	1	TWT0	0.000	
11	 C11	-0.438	-0.004	0.626	C.3	1	TWT0	0.000	
12	 C12	0.438	0.004	-0.626	C.3	1	TWT0	0.000	
13	 C13	-0.450	-0.004	-1.871	C.3	1	TWT0	0.000	
14	 C14	0.426	0.004	-3.125	C.3	1	TWT0	0.000	
15	 C15	-0.463	-0.005	-4.370	C.3	1	TWT0	0.000	
16	 C16	0.413	0.004	-5.623	C.3	1	TWT0	0.000	
17	 C17	-0.475	-0.005	-6.868	C.3	1	TWT0	0.000	
18	 C18	0.401	0.004	-8.122	C.3	1	TWT0	0.000	
19	 C19	-0.488	-0.005	-9.367	C.3	1	TWT0	0.000	
20	 C20	0.389	0.004	-10.620	C.3	1	TWT0	0.000	
21	 C21	-0.500	-0.005	-11.865	C.3	1	TWT0	0.000	
22	 C22	0.376	0.004	-13.119	C.3	1	TWT0	0.000	
23	H1C1	0.256	0.002	14.005	 H	1	TWT0	0.000	
24	H1C2	-1.015	0.878	13.122	 H	1	TWT0	0.000	
25	H1C3	-0.996	-0.900	13.122	 H	1	TWT0	0.000	
26	H2C1	1.119	0.902	11.862	 H	1	TWT0	0.000	
27	H2C2	1.139	-0.877	11.862	 H	1	TWT0	0.000	
28	H3C1	-1.008	-0.901	10.623	 H	1	TWT0	0.000	
29	H3C2	-1.028	0.878	10.623	 H	1	TWT0	0.000	
30	H4C1	1.107	0.902	9.363	 H	1	TWT0	0.000	
31	H4C2	1.126	-0.877	9.363	 H	1	TWT0	0.000	
32	H5C1	-1.021	-0.901	8.125	 H	1	TWT0	0.000	
33	H5C2	-1.040	0.878	8.125	 H	1	TWT0	0.000	
34	H6C1	1.095	0.902	6.865	 H	1	TWT0	0.000	
35	H6C2	1.114	-0.877	6.865	 H	1	TWT0	0.000	
36	H7C1	-1.033	-0.901	5.626	 H	1	TWT0	0.000	
37	H7C2	-1.052	0.878	5.626	 H	1	TWT0	0.000	
38	H8C1	1.082	0.901	4.367	 H	1	TWT0	0.000	
39	H8C2	1.102	-0.878	4.367	 H	1	TWT0	0.000	
40	H9C1	-1.045	-0.901	3.128	 H	1	TWT0	0.000	
41	H9C2	-1.065	0.878	3.128	 H	1	TWT0	0.000	
42	H101	1.070	0.901	1.868	 H	1	TWT0	0.000	
43	H102	1.089	-0.878	1.868	 H	1	TWT0	0.000	
44	H111	-1.058	-0.901	0.629	 H	1	TWT0	0.000	
45	H112	-1.077	0.878	0.629	 H	1	TWT0	0.000	
46	H121	1.058	0.901	-0.629	 H	1	TWT0	0.000	
47	H122	1.077	-0.878	-0.629	 H	1	TWT0	0.000	
48	H131	-1.070	-0.901	-1.868	 H	1	TWT0	0.000	
49	H132	-1.089	0.878	-1.868	 H	1	TWT0	0.000	
50	H141	1.045	0.901	-3.128	 H	1	TWT0	0.000	
51	H142	1.065	-0.878	-3.128	 H	1	TWT0	0.000	
52	H151	-1.082	-0.901	-4.367	 H	1	TWT0	0.000	
53	H152	-1.102	0.878	-4.367	 H	1	TWT0	0.000	
54	H161	1.033	0.901	-5.626	 H	1	TWT0	0.000	
55	H162	1.052	-0.878	-5.626	 H	1	TWT0	0.000	
56	H171	-1.095	-0.902	-6.865	 H	1	TWT0	0.000	
57	H172	-1.114	0.877	-6.865	 H	1	TWT0	0.000	
58	H181	1.021	0.901	-8.125	 H	1	TWT0	0.000	
59	H182	1.040	-0.878	-8.125	 H	1	TWT0	0.000	
60	H191	-1.107	-0.902	-9.363	 H	1	TWT0	0.000	
61	H192	-1.126	0.877	-9.363	 H	1	TWT0	0.000	
62	H201	1.008	0.901	-10.623	 H	1	TWT0	0.000	
63	H202	1.028	-0.878	-10.623	 H	1	TWT0	0.000	
64	H211	-1.119	-0.902	-11.862	 H	1	TWT0	0.000	
65	H212	-1.139	0.877	-11.862	 H	1	TWT0	0.000	
66	H221	-0.256	-0.002	-14.005	 H	1	TWT0	0.000	
67	H222	0.996	0.900	-13.122	 H	1	TWT0	0.000	
68	H223	1.015	-0.878	-13.122	 H	1	TWT0	0.000	
@<TRIPOS>BOND
1 1 2 1
2 1 23 1
3 1 24 1
4 1 25 1
5 2 3 1
6 2 26 1
7 2 27 1
8 3 4 1
9 3 28 1
10 3 29 1
11 4 5 1
12 4 30 1
13 4 31 1
14 5 6 1
15 5 32 1
16 5 33 1
17 6 7 1
18 6 34 1
19 6 35 1
20 7 8 1
21 7 36 1
22 7 37 1
23 8 9 1
24 8 38 1
25 8 39 1
26 9 10 1
27 9 40 1
28 9 41 1
29 10 11 1
30 10 42 1
31 10 43 1
32 11 12 1
33 11 44 1
34 11 45 1
35 12 13 1
36 12 46 1
37 12 47 1
38 13 14 1
39 13 48 1
40 13 49 1
41 14 15 1
42 14 50 1
43 14 51 1
44 15 16 1
45 15 52 1
46 15 53 1
47 16 17 1
48 16 54 1
49 16 55 1
50 17 18 1
51 17 56 1
52 17 57 1
53 18 19 1
54 18 58 1
55 18 59 1
56 19 20 1
57 19 60 1
58 19 61 1
59 20 21 1
60 20 62 1
61 20 63 1
62 21 22 1
63 21 64 1
64 21 65 1
65 22 66 1
66 22 67 1
67 22 68 1
@<TRIPOS>SUBSTRUCTURE
1	TWT0	1	GROUP	1 ****	TWT
