# created with PyMOL 2.3.5
@<TRIPOS>MOLECULE
KNZ
70 73 1 0 0
SMALL
USER_CHARGES


@<TRIPOS>ATOM
      1 C4          8.1050    0.5490   -0.5530 C.3       1 KNZ1        0.0000
      2 C14         0.4300   -2.7430    0.0210 C.2       1 KNZ1        0.0000
      3 C5          9.0340    1.6120    0.0360 C.3       1 KNZ1        0.0000
      4 C6         10.2590    1.7760   -0.8670 C.3       1 KNZ1        0.0000
      5 C11         4.6590   -2.9030   -0.8160 C.2       1 KNZ1        0.0000
      6 C7         11.1730    2.8240   -0.2870 C.2       1 KNZ1        0.0000
      7 C8          6.1070   -0.6370   -0.1160 C.2       1 KNZ1        0.0000
      8 C9          6.7630   -1.8070   -0.4900 C.2       1 KNZ1        0.0000
      9 C10         6.0400   -2.9330   -0.8320 C.2       1 KNZ1        0.0000
     10 C12         3.9950   -1.7380   -0.4560 C.2       1 KNZ1        0.0000
     11 C13         1.8990   -2.8040   -0.0860 C.2       1 KNZ1        0.0000
     12 N1          6.8770    0.4740    0.2490 N.pl3     1 KNZ1        0.0000
     13 N2          2.5950   -1.7070   -0.4440 N.pl3     1 KNZ1        0.0000
     14 C3          6.1160    1.7250    0.1640 C.3       1 KNZ1        0.0000
     15 C1          4.7910    1.5450    0.9150 C.3       1 KNZ1        0.0000
     16 C15        -0.2960   -3.8810    0.3920 C.2       1 KNZ1        0.0000
     17 C16        -1.6710   -3.8160    0.4960 C.2       1 KNZ1        0.0000
     18 C17        -2.3320   -2.6240    0.2320 C.2       1 KNZ1        0.0000
     19 C18        -4.3020   -1.3070    0.0490 C.3       1 KNZ1        0.0000
     20 C19        -5.8170   -1.4340    0.2160 C.3       1 KNZ1        0.0000
     21 C2          4.0170    2.8380    0.9030 C.2       1 KNZ1        0.0000
     22 C20        -6.4780   -0.0880   -0.0890 C.3       1 KNZ1        0.0000
     23 C21        -7.9940   -0.2140    0.0780 C.3       1 KNZ1        0.0000
     24 C22        -9.9650    1.1030   -0.1040 C.2       1 KNZ1        0.0000
     25 C23       -10.6840   -0.0230    0.2690 C.2       1 KNZ1        0.0000
     26 C24       -12.0600    0.0400    0.3780 C.2       1 KNZ1        0.0000
     27 C25       -12.7230    1.2240    0.1160 C.2       1 KNZ1        0.0000
     28 C26       -12.0100    2.3510   -0.2570 C.2       1 KNZ1        0.0000
     29 C27       -10.6300    2.2930   -0.3670 C.2       1 KNZ1        0.0000
     30 C28        -1.6150   -1.4910   -0.1370 C.2       1 KNZ1        0.0000
     31 C29        -0.2440   -1.5460   -0.2430 C.2       1 KNZ1        0.0000
     32 C30         4.7200   -0.6010   -0.1070 C.2       1 KNZ1        0.0000
     33 F1        -12.6600    3.5080   -0.5130 F         1 KNZ1        0.0000
     34 F2         -9.9330    3.3910   -0.7310 F         1 KNZ1        0.0000
     35 F3          0.3480   -5.0410    0.6470 F         1 KNZ1        0.0000
     36 O1          2.9600    2.9050    0.3220 O.co2     1 KNZ1        0.0000
     37 O2          4.5030    3.9170    1.5380 O.3       1 KNZ1        0.0000
     38 O3         10.8770    3.3830    0.7420 O.co2     1 KNZ1        0.0000
     39 O4         12.3180    3.1370   -0.9150 O.3       1 KNZ1        0.0000
     40 O5          2.4830   -3.8450    0.1480 O.2       1 KNZ1        0.0000
     41 O6         -3.6840   -2.5640    0.3350 O.3       1 KNZ1        0.0000
     42 O7          4.0410    0.5260    0.2460 O.3       1 KNZ1        0.0000
     43 O8         -8.6110    1.0430   -0.2070 O.3       1 KNZ1        0.0000
     44 H42         7.8528    0.8153   -1.5794 H         1 KNZ1        0.0000
     45 H43         8.6064   -0.4187   -0.5413 H         1 KNZ1        0.0000
     46 H52         8.5028    2.5614    0.1035 H         1 KNZ1        0.0000
     47 H53         9.3547    1.3034    1.0310 H         1 KNZ1        0.0000
     48 H62         9.9382    2.0842   -1.8621 H         1 KNZ1        0.0000
     49 H63        10.7907    0.8269   -0.9342 H         1 KNZ1        0.0000
     50 H11         4.0962   -3.7852   -1.0833 H         1 KNZ1        0.0000
     51 H9          7.8424   -1.8341   -0.5127 H         1 KNZ1        0.0000
     52 H10         6.5557   -3.8394   -1.1127 H         1 KNZ1        0.0000
     53 H2          2.1066   -0.8620   -0.7038 H         1 KNZ1        0.0000
     54 H32         5.9162    1.9626   -0.8809 H         1 KNZ1        0.0000
     55 H33         6.6881    2.5330    0.6200 H         1 KNZ1        0.0000
     56 H1          4.9881    1.2427    1.9435 H         1 KNZ1        0.0000
     57 H16        -2.2327   -4.6927    0.7828 H         1 KNZ1        0.0000
     58 H182       -3.9229   -0.5511    0.7367 H         1 KNZ1        0.0000
     59 H183       -4.0726   -1.0140   -0.9755 H         1 KNZ1        0.0000
     60 H192       -6.0462   -1.7274    1.2404 H         1 KNZ1        0.0000
     61 H193       -6.1964   -2.1895   -0.4720 H         1 KNZ1        0.0000
     62 H202       -6.0984    0.6672    0.5993 H         1 KNZ1        0.0000
     63 H203       -6.2485    0.2057   -1.1133 H         1 KNZ1        0.0000
     64 H212       -8.3736   -0.9692   -0.6102 H         1 KNZ1        0.0000
     65 H213       -8.2236   -0.5076    1.1023 H         1 KNZ1        0.0000
     66 H23       -10.1681   -0.9493    0.4743 H         1 KNZ1        0.0000
     67 H24       -12.6184   -0.8376    0.6685 H         1 KNZ1        0.0000
     68 H25       -13.7986    1.2703    0.2023 H         1 KNZ1        0.0000
     69 H28        -2.1349   -0.5665   -0.3407 H         1 KNZ1        0.0000
     70 H29         0.3114   -0.6653   -0.5299 H         1 KNZ1        0.0000
@<TRIPOS>BOND
     1    6   38 2
     2    6   39 1
     3    4    6 1
     4    1   12 1
     5    1    3 1
     6    3    4 1
     7   12   14 1
     8    7   12 1
     9    7    8 2
    10    8    9 1
    11   14   15 1
    12    7   32 1
    13   21   36 2
    14    5    9 2
    15   15   21 1
    16   15   42 1
    17   21   37 1
    18   32   42 1
    19   10   32 2
    20    5   10 1
    21   10   13 1
    22   11   13 1
    23   11   40 2
    24    2   11 1
    25   16   35 1
    26    2   16 2
    27    2   31 1
    28   16   17 1
    29   30   31 2
    30   17   18 2
    31   18   30 1
    32   18   41 1
    33   19   41 1
    34   19   20 1
    35   20   22 1
    36   22   23 1
    37   23   43 1
    38   24   43 1
    39   29   34 1
    40   24   29 2
    41   24   25 1
    42   28   29 1
    43   25   26 2
    44   28   33 1
    45   27   28 2
    46   26   27 1
    47   44    1 1
    48   45    1 1
    49   46    3 1
    50   47    3 1
    51   48    4 1
    52   49    4 1
    53   50    5 1
    54   51    8 1
    55   52    9 1
    56   53   13 1
    57   54   14 1
    58   55   14 1
    59   56   15 1
    60   57   17 1
    61   58   19 1
    62   59   19 1
    63   60   20 1
    64   61   20 1
    65   62   22 1
    66   63   22 1
    67   64   23 1
    68   65   23 1
    69   66   25 1
    70   67   26 1
    71   68   27 1
    72   69   30 1
    73   70   31 1
@<TRIPOS>SUBSTRUCTURE
     1 KNZ1        1 RESIDUE           4 A     KNZ     0 ROOT
