# created with PyMOL 2.3.5
@<TRIPOS>MOLECULE
CFF
24 25 1 0 0
SMALL
USER_CHARGES


@<TRIPOS>ATOM
      1 N1          1.0470   -0.0000   -1.3120 N.pl3     1 CFF1        0.0000
      2 C2         -0.2080   -0.0000   -1.7900 C.2       1 CFF1        0.0000
      3 C10         2.1760    0.0000   -2.2460 C.3       1 CFF1        0.0000
      4 C6          1.2850   -0.0010    0.0160 C.2       1 CFF1        0.0000
      5 N3         -1.2760   -0.0000   -0.9710 N.pl3     1 CFF1        0.0000
      6 O11        -0.3840    0.0000   -2.9930 O.2       1 CFF1        0.0000
      7 C12        -2.6290   -0.0000   -1.5330 C.3       1 CFF1        0.0000
      8 C4         -1.0980   -0.0000    0.4020 C.2       1 CFF1        0.0000
      9 C5          0.1930    0.0050    0.9110 C.2       1 CFF1        0.0000
     10 N9         -1.9340   -0.0000    1.4440 N.2       1 CFF1        0.0000
     11 O13         2.4280   -0.0000    0.4370 O.2       1 CFF1        0.0000
     12 N7          0.0680   -0.0000    2.2860 N.pl3     1 CFF1        0.0000
     13 C8         -1.2510   -0.0000    2.5600 C.2       1 CFF1        0.0000
     14 C14         1.1610   -0.0000    3.2610 C.3       1 CFF1        0.0000
     15 H101        1.8000    0.0010   -3.2690 H         1 CFF1        0.0000
     16 H102        2.7830    0.8900   -2.0820 H         1 CFF1        0.0000
     17 H103        2.7830   -0.8890   -2.0830 H         1 CFF1        0.0000
     18 H121       -2.5700   -0.0000   -2.6220 H         1 CFF1        0.0000
     19 H122       -3.1620   -0.8900   -1.1980 H         1 CFF1        0.0000
     20 H123       -3.1620    0.8890   -1.1980 H         1 CFF1        0.0000
     21 H81        -1.6790    0.0000    3.5520 H         1 CFF1        0.0000
     22 H141        1.4320   -1.0280    3.5030 H         1 CFF1        0.0000
     23 H142        2.0240    0.5130    2.8390 H         1 CFF1        0.0000
     24 H143        0.8390    0.5130    4.1670 H         1 CFF1        0.0000
@<TRIPOS>BOND
     1    1    2 1
     2    1    3 1
     3    1    4 1
     4    2    5 1
     5    2    6 2
     6    3   15 1
     7    3   16 1
     8    3   17 1
     9    4    9 1
    10    4   11 2
    11    5    7 1
    12    5    8 1
    13    7   18 1
    14    7   19 1
    15    7   20 1
    16    8    9 2
    17    8   10 1
    18    9   12 1
    19   10   13 2
    20   12   13 1
    21   12   14 1
    22   13   21 1
    23   14   22 1
    24   14   23 1
    25   14   24 1
@<TRIPOS>SUBSTRUCTURE
     1 CFF1        1 RESIDUE           4 A     CFF     0 ROOT
