# created with PyMOL 2.3.5
@<TRIPOS>MOLECULE
BU1
16 15 1                 
SMALL
USER_CHARGES
@<TRIPOS>ATOM
1	  C1	0.518	0.000	1.854	C.3	1	BU10	0.000	
2	  C2	-0.415	0.000	0.642	C.3	1	BU10	0.000	
3	  C3	0.415	0.000	-0.642	C.3	1	BU10	0.000	
4	  C4	-0.518	0.000	-1.854	C.3	1	BU10	0.000	
5	  O5	-0.257	0.000	3.053	O.3	1	BU10	0.000	
6	  O6	0.257	0.000	-3.053	O.3	1	BU10	0.000	
7	 H11	1.147	0.890	1.828	 H	1	BU10	0.000	
8	 H12	1.147	-0.890	1.828	 H	1	BU10	0.000	
9	 H21	-1.044	-0.890	0.668	 H	1	BU10	0.000	
10	 H22	-1.044	0.890	0.668	 H	1	BU10	0.000	
11	 H31	1.044	0.890	-0.668	 H	1	BU10	0.000	
12	 H32	1.044	-0.890	-0.668	 H	1	BU10	0.000	
13	 H41	-1.147	-0.890	-1.828	 H	1	BU10	0.000	
14	 H42	-1.147	0.890	-1.828	 H	1	BU10	0.000	
15	 HO5	0.368	0.000	3.791	 H	1	BU10	0.000	
16	 HO6	-0.368	0.000	-3.791	 H	1	BU10	0.000	
@<TRIPOS>BOND
1 1 2 1
2 1 5 1
3 1 7 1
4 1 8 1
5 2 3 1
6 2 9 1
7 2 10 1
8 3 4 1
9 3 11 1
10 3 12 1
11 4 6 1
12 4 13 1
13 4 14 1
14 5 15 1
15 6 16 1
@<TRIPOS>SUBSTRUCTURE
1	BU10	1	GROUP	1 ****	BU1
