# created with PyMOL 2.3.5
@<TRIPOS>MOLECULE
F9Q
33 35 1 0 0
SMALL
USER_CHARGES


@<TRIPOS>ATOM
      1 C01         1.8780   -4.3890    1.2010 C.3       1 F9Q1        0.0000
      2 C02         1.5150   -3.0720    0.5640 C.2       1 F9Q1        0.0000
      3 C03         0.1970   -2.6670    0.5430 C.2       1 F9Q1        0.0000
      4 C04        -0.1280   -1.4430   -0.0510 C.2       1 F9Q1        0.0000
      5 C05         0.9070   -0.6800   -0.6000 C.2       1 F9Q1        0.0000
      6 C06         2.2010   -1.1610   -0.5350 C.2       1 F9Q1        0.0000
      7 CL7         3.4980   -0.2230   -1.2060 Cl        1 F9Q1        0.0000
      8 N08         2.4640   -2.3200    0.0390 N.2       1 F9Q1        0.0000
      9 C09        -1.5310   -0.9680   -0.0970 C.2       1 F9Q1        0.0000
     10 C10        -1.8250    0.4050    0.0190 C.2       1 F9Q1        0.0000
     11 N11        -3.1000    0.7880   -0.0280 N.2       1 F9Q1        0.0000
     12 C12        -4.0490   -0.1250   -0.1820 C.2       1 F9Q1        0.0000
     13 N13        -5.3730    0.2710   -0.2320 N.pl3     1 F9Q1        0.0000
     14 N14        -3.7480   -1.4150   -0.2890 N.2       1 F9Q1        0.0000
     15 N15        -2.5300   -1.8290   -0.2540 N.2       1 F9Q1        0.0000
     16 C16        -0.7420    1.4010    0.1910 C.2       1 F9Q1        0.0000
     17 C17        -0.8550    2.6640   -0.3890 C.2       1 F9Q1        0.0000
     18 C18         0.1560    3.5880   -0.2260 C.2       1 F9Q1        0.0000
     19 C19         1.2830    3.2620    0.5120 C.2       1 F9Q1        0.0000
     20 F20         2.2710    4.1700    0.6700 F         1 F9Q1        0.0000
     21 C21         1.4000    2.0080    1.0900 C.2       1 F9Q1        0.0000
     22 C22         0.3920    1.0790    0.9370 C.2       1 F9Q1        0.0000
     23 H1          1.8340   -5.1790    0.4520 H         1 F9Q1        0.0000
     24 H2          2.8870   -4.3300    1.6090 H         1 F9Q1        0.0000
     25 H3          1.1740   -4.6100    2.0040 H         1 F9Q1        0.0000
     26 H4         -0.5730   -3.2870    0.9780 H         1 F9Q1        0.0000
     27 H5          0.6980    0.2710   -1.0670 H         1 F9Q1        0.0000
     28 H6         -5.6020    1.2100   -0.1540 H         1 F9Q1        0.0000
     29 H7         -6.0740   -0.3910   -0.3440 H         1 F9Q1        0.0000
     30 H8         -1.7330    2.9190   -0.9640 H         1 F9Q1        0.0000
     31 H9          0.0700    4.5670   -0.6740 H         1 F9Q1        0.0000
     32 H10         2.2800    1.7580    1.6640 H         1 F9Q1        0.0000
     33 H11         0.4820    0.1030    1.3910 H         1 F9Q1        0.0000
@<TRIPOS>BOND
     1    6    7 1
     2    6    8 2
     3    5    6 1
     4    2    8 1
     5    4    5 2
     6    1    2 1
     7    2    3 2
     8    3    4 1
     9    4    9 1
    10   14   15 2
    11    9   15 1
    12   12   14 1
    13    9   10 2
    14   12   13 1
    15   11   12 2
    16   10   11 1
    17   10   16 1
    18   16   22 2
    19   21   22 1
    20   16   17 1
    21   19   21 2
    22   17   18 2
    23   18   19 1
    24   19   20 1
    25    1   23 1
    26    1   24 1
    27    1   25 1
    28    3   26 1
    29    5   27 1
    30   13   28 1
    31   13   29 1
    32   17   30 1
    33   18   31 1
    34   21   32 1
    35   22   33 1
@<TRIPOS>SUBSTRUCTURE
     1 F9Q1        1 RESIDUE           4 A     F9Q     0 ROOT
