# created with PyMOL 2.3.5
@<TRIPOS>MOLECULE
68H
38 38 1                 
SMALL
USER_CHARGES
@<TRIPOS>ATOM
1	  O2	3.161	2.749	-0.559	O.3	1	68H0	0.000	
2	  C2	3.805	1.624	0.043	C.3	1	68H0	0.000	
3	 C12	2.871	0.442	0.027	C.2	1	68H0	0.000	
4	 C11	3.279	-0.772	0.561	C.2	1	68H0	0.000	
5	  O1	4.521	-0.897	1.099	O.3	1	68H0	0.000	
6	 C10	2.417	-1.859	0.545	C.2	1	68H0	0.000	
7	  C9	1.155	-1.730	-0.003	C.2	1	68H0	0.000	
8	 C13	1.607	0.567	-0.514	C.2	1	68H0	0.000	
9	  C8	0.751	-0.519	-0.534	C.2	1	68H0	0.000	
10	  C1	-0.626	-0.382	-1.131	C.3	1	68H0	0.000	
11	  O3	-0.992	-1.605	-1.771	O.3	1	68H0	0.000	
12	  C3	-1.633	-0.065	-0.023	C.3	1	68H0	0.000	
13	  N1	-2.975	0.069	-0.605	N.3	1	68H0	0.000	
14	  C4	-3.970	0.374	0.432	C.3	1	68H0	0.000	
15	  C7	-3.601	1.689	1.123	C.3	1	68H0	0.000	
16	  C6	-5.352	0.506	-0.211	C.3	1	68H0	0.000	
17	  C5	-3.993	-0.755	1.464	C.3	1	68H0	0.000	
18	  H2	3.705	3.547	-0.583	 H	1	68H0	0.000	
19	H21C	4.709	1.381	-0.516	 H	1	68H0	0.000	
20	H22C	4.069	1.865	1.073	 H	1	68H0	0.000	
21	 H13	1.287	1.513	-0.925	 H	1	68H0	0.000	
22	  H1	4.562	-0.693	2.043	 H	1	68H0	0.000	
23	 H10	2.732	-2.805	0.959	 H	1	68H0	0.000	
24	  H9	0.483	-2.576	-0.016	 H	1	68H0	0.000	
25	  HA	-0.625	0.426	-1.863	 H	1	68H0	0.000	
26	  H3	-1.013	-2.369	-1.178	 H	1	68H0	0.000	
27	H31C	-1.633	-0.872	0.709	 H	1	68H0	0.000	
28	H32C	-1.353	0.868	0.466	 H	1	68H0	0.000	
29	  HB	-2.985	0.768	-1.332	 H	1	68H0	0.000	
30	H71C	-3.584	2.493	0.387	 H	1	68H0	0.000	
31	H72C	-4.339	1.915	1.892	 H	1	68H0	0.000	
32	H73C	-2.616	1.594	1.581	 H	1	68H0	0.000	
33	H61C	-5.615	-0.430	-0.702	 H	1	68H0	0.000	
34	H62C	-6.090	0.733	0.559	 H	1	68H0	0.000	
35	H63C	-5.335	1.311	-0.946	 H	1	68H0	0.000	
36	H51C	-3.009	-0.849	1.922	 H	1	68H0	0.000	
37	H52C	-4.732	-0.529	2.234	 H	1	68H0	0.000	
38	H53C	-4.256	-1.691	0.972	 H	1	68H0	0.000	
@<TRIPOS>BOND
1 1 2 1
2 2 3 1
3 3 4 1
4 3 8 2
5 4 5 1
6 4 6 2
7 6 7 1
8 7 9 2
9 8 9 1
10 9 10 1
11 10 11 1
12 10 12 1
13 12 13 1
14 13 14 1
15 14 15 1
16 14 16 1
17 14 17 1
18 1 18 1
19 2 19 1
20 2 20 1
21 8 21 1
22 5 22 1
23 6 23 1
24 7 24 1
25 10 25 1
26 11 26 1
27 12 27 1
28 12 28 1
29 13 29 1
30 15 30 1
31 15 31 1
32 15 32 1
33 16 33 1
34 16 34 1
35 16 35 1
36 17 36 1
37 17 37 1
38 17 38 1
@<TRIPOS>SUBSTRUCTURE
1	68H0	1	GROUP	1 ****	68H
