@<TRIPOS>MOLECULE
68H
17 17 1 0 0
SMALL
NO_CHARGES


@<TRIPOS>ATOM
      1 O2         88.0540   86.4130  128.3080 O.3       1 68H446      0.0000
      2 C2         89.2300   86.9990  128.7690 C.3       1 68H446      0.0000
      3 C12        89.5620   88.1220  127.8540 C.ar      1 68H446      0.0000
      4 C11        89.0920   88.1190  126.5390 C.ar      1 68H446      0.0000
      5 O1         88.3290   87.0770  126.1010 O.3       1 68H446      0.0000
      6 C10        89.3760   89.1480  125.6490 C.ar      1 68H446      0.0000
      7 C9         90.1500   90.2040  126.0950 C.ar      1 68H446      0.0000
      8 C13        90.3310   89.1840  128.2840 C.ar      1 68H446      0.0000
      9 C8         90.6140   90.2090  127.3990 C.ar      1 68H446      0.0000
     10 C1         91.4480   91.3310  127.8940 C.3       1 68H446      0.0000
     11 O3         91.6310   92.2900  126.9160 O.3       1 68H446      0.0000
     12 C3         90.7320   91.9080  129.1120 C.3       1 68H446      0.0000
     13 N1         91.4600   93.1330  129.4910 N.4       1 68H446      0.0000
     14 C4         91.1620   93.5980  130.8680 C.3       1 68H446      0.0000
     15 C7         91.8940   94.8980  131.2050 C.3       1 68H446      0.0000
     16 C6         89.6640   93.8460  131.0300 C.3       1 68H446      0.0000
     17 C5         91.6060   92.5030  131.8440 C.3       1 68H446      0.0000
@<TRIPOS>BOND
     1    1    2 1
     2    2    3 1
     3    3    4 ar
     4    3    8 ar
     5    4    5 1
     6    4    6 ar
     7    6    7 ar
     8    7    9 ar
     9    8    9 ar
    10    9   10 1
    11   10   11 1
    12   10   12 1
    13   12   13 1
    14   13   14 1
    15   14   15 1
    16   14   16 1
    17   14   17 1
@<TRIPOS>SUBSTRUCTURE
     1 68H446      1 RESIDUE           4 R     68H     0 ROOT
