# created with PyMOL 2.3.5
@<TRIPOS>MOLECULE
5FW
32 32 1                 
SMALL
USER_CHARGES
@<TRIPOS>ATOM
1	 CAI	5.220	-1.181	0.121	C.3	1	5FW0	0.000	
2	 CAG	3.970	-0.513	0.696	C.3	1	5FW0	0.000	
3	 CAJ	4.359	0.804	1.371	C.3	1	5FW0	0.000	
4	 NAD	3.017	-0.243	-0.389	N.3	1	5FW0	0.000	
5	 CAF	1.642	-0.172	0.123	C.3	1	5FW0	0.000	
6	 CAE	0.680	0.109	-1.034	C.3	1	5FW0	0.000	
7	 OAA	1.025	1.353	-1.647	O.3	1	5FW0	0.000	
8	 CAH	-0.730	0.182	-0.508	C.2	1	5FW0	0.000	
9	 CAK	-1.538	-0.939	-0.544	C.2	1	5FW0	0.000	
10	 CAL	-1.211	1.368	0.014	C.2	1	5FW0	0.000	
11	 CAN	-2.505	1.440	0.498	C.2	1	5FW0	0.000	
12	 CAO	-3.321	0.322	0.460	C.2	1	5FW0	0.000	
13	 OAC	-4.594	0.391	0.936	O.3	1	5FW0	0.000	
14	 CAM	-2.835	-0.874	-0.061	C.2	1	5FW0	0.000	
15	 OAB	-3.632	-1.976	-0.095	O.3	1	5FW0	0.000	
16	HAI1	5.927	-1.381	0.926	 H	1	5FW0	0.000	
17	HAI2	4.943	-2.119	-0.360	 H	1	5FW0	0.000	
18	HAI3	5.682	-0.519	-0.612	 H	1	5FW0	0.000	
19	 HAG	3.508	-1.174	1.428	 H	1	5FW0	0.000	
20	HAJ1	4.821	1.466	0.638	 H	1	5FW0	0.000	
21	HAJ2	3.468	1.280	1.780	 H	1	5FW0	0.000	
22	HAJ3	5.066	0.604	2.176	 H	1	5FW0	0.000	
23	 HAD	3.262	0.601	-0.885	 H	1	5FW0	0.000	
24	HAF1	1.379	-1.121	0.591	 H	1	5FW0	0.000	
25	HAF2	1.569	0.629	0.859	 H	1	5FW0	0.000	
26	 HAE	0.753	-0.691	-1.770	 H	1	5FW0	0.000	
27	 HAA	0.982	2.112	-1.050	 H	1	5FW0	0.000	
28	 HAK	-1.159	-1.866	-0.948	 H	1	5FW0	0.000	
29	 HAL	-0.576	2.241	0.044	 H	1	5FW0	0.000	
30	 HAN	-2.878	2.368	0.906	 H	1	5FW0	0.000	
31	 HAC	-5.248	0.647	0.272	 H	1	5FW0	0.000	
32	 HAB	-3.575	-2.527	0.697	 H	1	5FW0	0.000	
@<TRIPOS>BOND
1 1 2 1
2 2 3 1
3 2 4 1
4 4 5 1
5 5 6 1
6 6 7 1
7 6 8 1
8 8 9 1
9 8 10 2
10 9 14 2
11 10 11 1
12 11 12 2
13 12 13 1
14 12 14 1
15 14 15 1
16 1 16 1
17 1 17 1
18 1 18 1
19 2 19 1
20 3 20 1
21 3 21 1
22 3 22 1
23 4 23 1
24 5 24 1
25 5 25 1
26 6 26 1
27 7 27 1
28 9 28 1
29 10 29 1
30 11 30 1
31 13 31 1
32 15 32 1
@<TRIPOS>SUBSTRUCTURE
1	5FW0	1	GROUP	1 ****	5FW
