@<TRIPOS>MOLECULE
5FW
15 15 1 0 0
SMALL
NO_CHARGES


@<TRIPOS>ATOM
      1 CAI        83.9420   93.2810  131.9030 C.3       1 5FW446      0.0000
      2 CAG        83.2430   94.0890  130.8140 C.3       1 5FW446      0.0000
      3 CAJ        83.7240   95.5390  130.8420 C.3       1 5FW446      0.0000
      4 NAD        83.5030   93.4450  129.5100 N.4       1 5FW446      0.0000
      5 CAF        82.8070   92.1560  129.3840 C.3       1 5FW446      0.0000
      6 CAE        83.3950   91.4140  128.1680 C.3       1 5FW446      0.0000
      7 OAA        84.1060   92.2850  127.3470 O.3       1 5FW446      0.0000
      8 CAH        82.2840   90.7100  127.4420 C.ar      1 5FW446      0.0000
      9 CAK        81.2950   90.0630  128.1640 C.ar      1 5FW446      0.0000
     10 CAL        82.2670   90.7070  126.0520 C.ar      1 5FW446      0.0000
     11 CAN        81.2560   90.0610  125.3650 C.ar      1 5FW446      0.0000
     12 CAO        80.2630   89.4160  126.0810 C.ar      1 5FW446      0.0000
     13 OAC        79.2630   88.7780  125.4210 O.3       1 5FW446      0.0000
     14 CAM        80.2840   89.4180  127.4720 C.ar      1 5FW446      0.0000
     15 OAB        79.2980   88.7770  128.1620 O.3       1 5FW446      0.0000
@<TRIPOS>BOND
     1    1    2 1
     2    2    3 1
     3    2    4 1
     4    4    5 1
     5    5    6 1
     6    6    7 1
     7    6    8 1
     8    8    9 ar
     9    8   10 ar
    10    9   14 ar
    11   10   11 ar
    12   11   12 ar
    13   12   13 1
    14   12   14 ar
    15   14   15 1
@<TRIPOS>SUBSTRUCTURE
     1 5FW446      1 RESIDUE           4 R     5FW     0 ROOT
