@<TRIPOS>MOLECULE
5FW
15 15 1 0 0
SMALL
NO_CHARGES


@<TRIPOS>ATOM
      1 CAI       130.0070  130.8280  176.3130 C.3       1 5FW463      0.0000
      2 CAG       131.5080  131.1250  176.1060 C.3       1 5FW463      0.0000
      3 CAJ       132.2620  129.8290  176.0930 C.3       1 5FW463      0.0000
      4 NAD       131.7100  131.8170  174.8010 N.4       1 5FW463      0.0000
      5 CAF       132.6750  132.8660  174.9440 C.3       1 5FW463      0.0000
      6 CAE       132.7810  133.6020  173.6380 C.3       1 5FW463      0.0000
      7 OAA       132.5070  132.6860  172.5700 O.3       1 5FW463      0.0000
      8 CAH       134.2060  134.1800  173.4630 C.ar      1 5FW463      0.0000
      9 CAK       134.8670  134.7740  174.5450 C.ar      1 5FW463      0.0000
     10 CAL       134.8340  134.1100  172.2170 C.ar      1 5FW463      0.0000
     11 CAN       136.1210  134.6310  172.0520 C.ar      1 5FW463      0.0000
     12 CAO       136.7750  135.2200  173.1320 C.ar      1 5FW463      0.0000
     13 OAC       138.0790  135.7480  172.9680 O.3       1 5FW463      0.0000
     14 CAM       136.1460  135.2900  174.3800 C.ar      1 5FW463      0.0000
     15 OAB       136.8240  135.8990  175.4910 O.3       1 5FW463      0.0000
@<TRIPOS>BOND
     1    1    2 1
     2    2    3 1
     3    2    4 1
     4    4    5 1
     5    5    6 1
     6    6    7 1
     7    6    8 1
     8    8    9 ar
     9    8   10 ar
    10    9   14 ar
    11   10   11 ar
    12   11   12 ar
    13   12   13 1
    14   12   14 ar
    15   14   15 1
@<TRIPOS>SUBSTRUCTURE
     1 5FW463      1 RESIDUE           4 R     5FW     0 ROOT
