# created with PyMOL 2.3.5
@<TRIPOS>MOLECULE
MLI
9 8 1                   
SMALL
USER_CHARGES
@<TRIPOS>ATOM
1	  C1	0.000	0.959	0.001	C.3	1	MLI0	0.000	
2	  C2	1.230	0.089	0.002	C.2	1	MLI0	0.000	
3	  C3	-1.230	0.089	0.000	C.2	1	MLI0	0.000	
4	  O6	1.119	-1.126	0.001	O.co2	1	MLI0	0.000	
5	  O7	2.338	0.599	-0.002	O.co2	1	MLI0	0.000	
6	  O8	-1.119	-1.126	-0.001	O.co2	1	MLI0	0.000	
7	  O9	-2.338	0.599	-0.001	O.co2	1	MLI0	0.000	
8	 H11	-0.001	1.588	0.892	 H	1	MLI0	0.000	
9	 H12	0.001	1.589	-0.888	 H	1	MLI0	0.000	
@<TRIPOS>BOND
1 1 2 1
2 1 3 1
3 1 8 1
4 1 9 1
5 2 4 2
6 2 5 1
7 3 6 2
8 3 7 1
@<TRIPOS>SUBSTRUCTURE
1	MLI0	1	GROUP	1 ****	MLI
