@<TRIPOS>MOLECULE
CLR
28 31 1 0 0
SMALL
NO_CHARGES


@<TRIPOS>ATOM
      1 C1        131.1160  138.1490  124.2630 C.3       1 CLR437      0.0000
      2 C2        131.2460  137.9340  125.7590 C.3       1 CLR437      0.0000
      3 C3        132.5310  138.5780  126.2400 C.3       1 CLR437      0.0000
      4 C4        132.5050  140.0530  125.8880 C.2       1 CLR437      0.0000
      5 C5        132.2870  140.2110  124.5230 C.2       1 CLR437      0.0000
      6 C6        133.2160  140.9580  123.7990 C.2       1 CLR437      0.0000
      7 C7        133.1130  141.2020  122.4370 C.2       1 CLR437      0.0000
      8 C8        131.6620  141.1620  122.0460 C.3       1 CLR437      0.0000
      9 C9        131.1140  139.8010  122.4340 C.3       1 CLR437      0.0000
     10 C10       131.1450  139.6360  123.9470 C.3       1 CLR437      0.0000
     11 C11       129.6670  139.6220  121.9400 C.3       1 CLR437      0.0000
     12 C12       129.5510  139.9150  120.4440 C.3       1 CLR437      0.0000
     13 C13       130.0940  141.3050  120.2060 C.3       1 CLR437      0.0000
     14 C14       131.5440  141.3120  120.5480 C.3       1 CLR437      0.0000
     15 C15       131.9350  142.6940  120.0710 C.3       1 CLR437      0.0000
     16 C16       131.1800  142.8200  118.7350 C.3       1 CLR437      0.0000
     17 C17       130.1030  141.7240  118.7580 C.3       1 CLR437      0.0000
     18 C18       129.3410  142.3270  121.0640 C.3       1 CLR437      0.0000
     19 C19       129.9060  140.3000  124.5480 C.3       1 CLR437      0.0000
     20 C20       128.7470  142.3270  118.3890 C.3       1 CLR437      0.0000
     21 C21       127.8120  141.2180  117.9020 C.3       1 CLR437      0.0000
     22 C22       128.9350  143.3640  117.2800 C.3       1 CLR437      0.0000
     23 C23       127.7110  143.3590  116.3620 C.3       1 CLR437      0.0000
     24 C24       127.9660  144.2830  115.1700 C.3       1 CLR437      0.0000
     25 C25       126.7000  144.3730  114.3150 C.3       1 CLR437      0.0000
     26 C26       126.4520  143.0300  113.6260 C.3       1 CLR437      0.0000
     27 C27       126.8750  145.4650  113.2570 C.3       1 CLR437      0.0000
     28 O1        132.6390  138.4260  127.6630 O.3       1 CLR437      0.0000
@<TRIPOS>BOND
     1    1    2 1
     2    1   10 1
     3    2    3 1
     4    3    4 1
     5    3   28 1
     6    4    5 2
     7    5    6 2
     8    5   10 1
     9    6    7 2
    10    7    8 1
    11    8    9 1
    12    8   14 1
    13    9   10 1
    14    9   11 1
    15   10   19 1
    16   11   12 1
    17   12   13 1
    18   13   14 1
    19   13   17 1
    20   13   18 1
    21   14   15 1
    22   15   16 1
    23   16   17 1
    24   17   20 1
    25   20   21 1
    26   20   22 1
    27   22   23 1
    28   23   24 1
    29   24   25 1
    30   25   26 1
    31   25   27 1
@<TRIPOS>SUBSTRUCTURE
     1 CLR437      1 RESIDUE           4 R     CLR     0 ROOT
