@<TRIPOS>MOLECULE
CLR
28 31 1 0 0
SMALL
NO_CHARGES


@<TRIPOS>ATOM
      1 C1        128.5390  127.1260  144.1200 C.3       1 CLR437      0.0000
      2 C2        128.9610  127.7220  142.7760 C.3       1 CLR437      0.0000
      3 C3        130.4550  127.9110  142.6960 C.3       1 CLR437      0.0000
      4 C4        131.1510  126.5850  142.9320 C.3       1 CLR437      0.0000
      5 C5        130.7370  125.9440  144.2400 C.2       1 CLR437      0.0000
      6 C6        131.6500  125.5440  145.1130 C.2       1 CLR437      0.0000
      7 C7        131.3630  124.8520  146.4080 C.3       1 CLR437      0.0000
      8 C8        129.9130  124.3940  146.5330 C.3       1 CLR437      0.0000
      9 C9        128.9680  125.4740  145.9730 C.3       1 CLR437      0.0000
     10 C10       129.2370  125.7920  144.4740 C.3       1 CLR437      0.0000
     11 C11       127.4910  125.1500  146.2560 C.3       1 CLR437      0.0000
     12 C12       127.2070  124.8160  147.7260 C.3       1 CLR437      0.0000
     13 C13       128.1050  123.6840  148.2340 C.3       1 CLR437      0.0000
     14 C14       129.5600  124.1300  147.9910 C.3       1 CLR437      0.0000
     15 C15       130.4010  123.1380  148.7900 C.3       1 CLR437      0.0000
     16 C16       129.5260  122.8100  150.0170 C.3       1 CLR437      0.0000
     17 C17       128.1380  123.4620  149.7750 C.3       1 CLR437      0.0000
     18 C18       127.7710  122.3650  147.5180 C.3       1 CLR437      0.0000
     19 C19       128.7160  124.6720  143.5550 C.3       1 CLR437      0.0000
     20 C20       127.0010  122.6770  150.4530 C.3       1 CLR437      0.0000
     21 C21       126.0110  123.5800  151.1840 C.3       1 CLR437      0.0000
     22 C22       127.5800  121.6260  151.4110 C.3       1 CLR437      0.0000
     23 C23       126.6100  120.5630  151.8670 C.3       1 CLR437      0.0000
     24 C24       126.9570  119.9840  153.2170 C.3       1 CLR437      0.0000
     25 C25       125.8270  119.2340  153.9230 C.3       1 CLR437      0.0000
     26 C26       124.8470  120.1970  154.5770 C.3       1 CLR437      0.0000
     27 C27       126.3710  118.2500  154.9480 C.3       1 CLR437      0.0000
     28 O1        130.8120  128.4260  141.4060 O.3       1 CLR437      0.0000
@<TRIPOS>BOND
     1    1    2 1
     2    1   10 1
     3    2    3 1
     4    3    4 1
     5    3   28 1
     6    4    5 1
     7    5    6 2
     8    5   10 1
     9    6    7 1
    10    7    8 1
    11    8    9 1
    12    8   14 1
    13    9   10 1
    14    9   11 1
    15   10   19 1
    16   11   12 1
    17   12   13 1
    18   13   14 1
    19   13   17 1
    20   13   18 1
    21   14   15 1
    22   15   16 1
    23   16   17 1
    24   17   20 1
    25   20   21 1
    26   20   22 1
    27   22   23 1
    28   23   24 1
    29   24   25 1
    30   25   26 1
    31   25   27 1
@<TRIPOS>SUBSTRUCTURE
     1 CLR437      1 RESIDUE           4 R     CLR     0 ROOT
