@<TRIPOS>MOLECULE
CLR
56 62 2 0 0
SMALL
NO_CHARGES


@<TRIPOS>ATOM
      1 C1        110.8340  123.1410  102.1570 C.3       1 CLR519      0.0000
      2 C2        110.8950  124.0690  103.3630 C.3       1 CLR519      0.0000
      3 C3        110.2030  123.4260  104.5570 C.3       1 CLR519      0.0000
      4 C4        110.9450  122.1510  104.9370 C.3       1 CLR519      0.0000
      5 C5        111.0840  121.2450  103.7350 C.2       1 CLR519      0.0000
      6 C6        110.7940  119.9390  103.8860 C.2       1 CLR519      0.0000
      7 C7        110.7880  118.9500  102.7420 C.3       1 CLR519      0.0000
      8 C8        111.6640  119.4460  101.6010 C.3       1 CLR519      0.0000
      9 C9        111.2990  120.8840  101.2440 C.3       1 CLR519      0.0000
     10 C10       111.5610  121.8260  102.4180 C.3       1 CLR519      0.0000
     11 C11       111.9990  121.3900   99.9760 C.3       1 CLR519      0.0000
     12 C12       111.9290  120.4170   98.7970 C.3       1 CLR519      0.0000
     13 C13       112.4360  119.0660   99.2610 C.3       1 CLR519      0.0000
     14 C14       111.5130  118.5860  100.3570 C.3       1 CLR519      0.0000
     15 C15       111.7930  117.0950  100.4890 C.3       1 CLR519      0.0000
     16 C16       112.2090  116.6620   99.0810 C.3       1 CLR519      0.0000
     17 C17       112.3680  117.9340   98.2460 C.3       1 CLR519      0.0000
     18 C18       113.8600  119.2160   99.7960 C.3       1 CLR519      0.0000
     19 C19       113.0580  122.0870  102.5350 C.3       1 CLR519      0.0000
     20 C20       113.5640  117.8650   97.3020 C.3       1 CLR519      0.0000
     21 C21       113.6900  119.1460   96.4860 C.3       1 CLR519      0.0000
     22 C22       113.4740  116.6450   96.3940 C.3       1 CLR519      0.0000
     23 C23       113.9960  115.3990   97.0990 C.3       1 CLR519      0.0000
     24 C24       114.7810  114.5150   96.1370 C.3       1 CLR519      0.0000
     25 C25       114.7290  113.0550   96.5710 C.3       1 CLR519      0.0000
     26 C26       113.2960  112.5360   96.5730 C.3       1 CLR519      0.0000
     27 C27       115.6220  112.1910   95.6890 C.3       1 CLR519      0.0000
     28 O1        110.2160  124.3340  105.6640 O.3       1 CLR519      0.0000
     29 C1        111.3660  112.5610  108.0810 C.3       2 CLR520      0.0000
     30 C2        112.1250  111.3330  107.6020 C.3       2 CLR520      0.0000
     31 C3        112.7960  111.6770  106.2870 C.3       2 CLR520      0.0000
     32 C4        113.9420  112.6150  106.6110 C.3       2 CLR520      0.0000
     33 C5        113.3990  113.8610  107.2650 C.2       2 CLR520      0.0000
     34 C6        113.9890  115.0330  106.9910 C.2       2 CLR520      0.0000
     35 C7        113.1570  116.2750  106.8040 C.3       2 CLR520      0.0000
     36 C8        112.1080  116.3200  107.9040 C.3       2 CLR520      0.0000
     37 C9        111.3150  115.0210  107.9900 C.3       2 CLR520      0.0000
     38 C10       112.2240  113.8160  108.2250 C.3       2 CLR520      0.0000
     39 C11       110.2010  115.0890  109.0410 C.3       2 CLR520      0.0000
     40 C12       109.3170  116.3290  108.9080 C.3       2 CLR520      0.0000
     41 C13       110.2040  117.5570  108.8900 C.3       2 CLR520      0.0000
     42 C14       111.1230  117.4490  107.7010 C.3       2 CLR520      0.0000
     43 C15       111.7210  118.8310  107.5220 C.3       2 CLR520      0.0000
     44 C16       110.6610  119.7680  108.0820 C.3       2 CLR520      0.0000
     45 C17       109.5400  118.8980  108.6500 C.3       2 CLR520      0.0000
     46 C18       110.9970  117.6070  110.1890 C.3       2 CLR520      0.0000
     47 C19       112.7880  113.8660  109.6350 C.3       2 CLR520      0.0000
     48 C20       108.8730  119.4850  109.8920 C.3       2 CLR520      0.0000
     49 C21       107.4670  118.9340  110.0660 C.3       2 CLR520      0.0000
     50 C22       108.8210  121.0040  109.8690 C.3       2 CLR520      0.0000
     51 C23       108.0950  121.5400  111.0880 C.3       2 CLR520      0.0000
     52 C24       106.5990  121.5370  110.8540 C.3       2 CLR520      0.0000
     53 C25       105.9230  121.0830  112.1290 C.3       2 CLR520      0.0000
     54 C26       104.7680  122.0100  112.4880 C.3       2 CLR520      0.0000
     55 C27       105.4850  119.6320  111.9980 C.3       2 CLR520      0.0000
     56 O1        113.2930  110.4960  105.6540 O.3       2 CLR520      0.0000
@<TRIPOS>BOND
     1    1    2 1
     2    1   10 1
     3    2    3 1
     4    3    4 1
     5    3   28 1
     6    4    5 1
     7    5    6 2
     8    5   10 1
     9    6    7 1
    10    7    8 1
    11    8    9 1
    12    8   14 1
    13    9   10 1
    14    9   11 1
    15   10   19 1
    16   11   12 1
    17   12   13 1
    18   13   14 1
    19   13   17 1
    20   13   18 1
    21   14   15 1
    22   15   16 1
    23   16   17 1
    24   17   20 1
    25   20   21 1
    26   20   22 1
    27   22   23 1
    28   23   24 1
    29   24   25 1
    30   25   26 1
    31   25   27 1
    32   29   30 1
    33   29   38 1
    34   30   31 1
    35   31   32 1
    36   31   56 1
    37   32   33 1
    38   33   34 2
    39   33   38 1
    40   34   35 1
    41   35   36 1
    42   36   37 1
    43   36   42 1
    44   37   38 1
    45   37   39 1
    46   38   47 1
    47   39   40 1
    48   40   41 1
    49   41   42 1
    50   41   45 1
    51   41   46 1
    52   42   43 1
    53   43   44 1
    54   44   45 1
    55   45   48 1
    56   48   49 1
    57   48   50 1
    58   50   51 1
    59   51   52 1
    60   52   53 1
    61   53   54 1
    62   53   55 1
@<TRIPOS>SUBSTRUCTURE
     1 CLR519      1 RESIDUE           4 R     CLR     0 ROOT
     2 CLR520     29 RESIDUE           4 R     CLR     0 ROOT
