@<TRIPOS>MOLECULE
CLR
84 93 3 0 0
SMALL
NO_CHARGES


@<TRIPOS>ATOM
      1 C1        105.0330  114.7400  122.9880 C.3       1 CLR593      0.0000
      2 C2        105.6820  114.9190  124.3590 C.3       1 CLR593      0.0000
      3 C3        107.1970  115.0230  124.2160 C.3       1 CLR593      0.0000
      4 C4        107.5210  116.2860  123.4210 C.3       1 CLR593      0.0000
      5 C5        106.8060  116.2330  122.0850 C.2       1 CLR593      0.0000
      6 C6        107.5260  116.4730  120.9950 C.2       1 CLR593      0.0000
      7 C7        106.9820  116.4060  119.5930 C.3       1 CLR593      0.0000
      8 C8        105.4630  116.4850  119.5780 C.3       1 CLR593      0.0000
      9 C9        104.8660  115.5450  120.6290 C.3       1 CLR593      0.0000
     10 C10       105.3280  115.9120  122.0450 C.3       1 CLR593      0.0000
     11 C11       103.3350  115.4550  120.5080 C.3       1 CLR593      0.0000
     12 C12       102.8520  115.1490  119.0830 C.3       1 CLR593      0.0000
     13 C13       103.4530  116.1160  118.0660 C.3       1 CLR593      0.0000
     14 C14       104.9740  116.0350  118.2120 C.3       1 CLR593      0.0000
     15 C15       105.5050  116.7900  117.0030 C.3       1 CLR593      0.0000
     16 C16       104.5050  116.4210  115.9000 C.3       1 CLR593      0.0000
     17 C17       103.2930  115.7500  116.5850 C.3       1 CLR593      0.0000
     18 C18       102.9460  117.5400  118.3360 C.3       1 CLR593      0.0000
     19 C19       104.5890  117.1580  122.5440 C.3       1 CLR593      0.0000
     20 C20       101.9240  116.0980  115.9610 C.3       1 CLR593      0.0000
     21 C21       100.9880  114.8920  116.0390 C.3       1 CLR593      0.0000
     22 C22       101.9870  116.5460  114.4970 C.3       1 CLR593      0.0000
     23 C23       100.7640  117.3810  114.1400 C.3       1 CLR593      0.0000
     24 C24       100.8480  117.8230  112.6830 C.3       1 CLR593      0.0000
     25 C25        99.6290  118.6580  112.3040 C.3       1 CLR593      0.0000
     26 C26        99.6460  120.0040  113.0230 C.3       1 CLR593      0.0000
     27 C27        99.5870  118.8660  110.7930 C.3       1 CLR593      0.0000
     28 O1        107.8020  115.0770  125.5130 O.3       1 CLR593      0.0000
     29 C1         90.3290  134.9130  111.4580 C.3       2 CLR594      0.0000
     30 C2         89.6130  135.0470  110.1160 C.3       2 CLR594      0.0000
     31 C3         88.9030  136.3920  110.0320 C.3       2 CLR594      0.0000
     32 C4         89.9520  137.5000  110.0680 C.3       2 CLR594      0.0000
     33 C5         90.7980  137.3590  111.3200 C.2       2 CLR594      0.0000
     34 C6         90.9980  138.4490  112.0570 C.2       2 CLR594      0.0000
     35 C7         91.8090  138.4680  113.3290 C.3       2 CLR594      0.0000
     36 C8         92.6830  137.2250  113.4590 C.3       2 CLR594      0.0000
     37 C9         91.8520  135.9800  113.1310 C.3       2 CLR594      0.0000
     38 C10        91.3800  136.0090  111.6730 C.3       2 CLR594      0.0000
     39 C11        92.5740  134.6690  113.4850 C.3       2 CLR594      0.0000
     40 C12        93.1870  134.6590  114.8910 C.3       2 CLR594      0.0000
     41 C13        94.0680  135.8820  115.1190 C.3       2 CLR594      0.0000
     42 C14        93.1930  137.1220  114.8910 C.3       2 CLR594      0.0000
     43 C15        94.0620  138.2650  115.4000 C.3       2 CLR594      0.0000
     44 C16        94.7690  137.6540  116.6170 C.3       2 CLR594      0.0000
     45 C17        94.5450  136.1270  116.5540 C.3       2 CLR594      0.0000
     46 C18        95.2660  135.8540  114.1560 C.3       2 CLR594      0.0000
     47 C19        92.5520  135.7690  110.7170 C.3       2 CLR594      0.0000
     48 C20        95.7410  135.2640  117.0150 C.3       2 CLR594      0.0000
     49 C21        95.2120  134.0540  117.7870 C.3       2 CLR594      0.0000
     50 C22        96.7510  136.0280  117.8780 C.3       2 CLR594      0.0000
     51 C23        97.9280  135.1500  118.2890 C.3       2 CLR594      0.0000
     52 C24        98.8920  135.9360  119.1750 C.3       2 CLR594      0.0000
     53 C25       100.0610  135.0670  119.6370 C.3       2 CLR594      0.0000
     54 C26       101.0420  135.9040  120.4500 C.3       2 CLR594      0.0000
     55 C27        99.5760  133.8850  120.4750 C.3       2 CLR594      0.0000
     56 O1         88.1420  136.4610  108.8200 O.3       2 CLR594      0.0000
     57 C1        111.2210  113.5230  121.6460 C.3       3 CLR595      0.0000
     58 C2        111.8200  113.7220  123.0370 C.3       3 CLR595      0.0000
     59 C3        113.3340  113.5590  122.9810 C.3       3 CLR595      0.0000
     60 C4        113.9120  114.6690  122.1060 C.3       3 CLR595      0.0000
     61 C5        113.2620  114.6240  120.7360 C.2       3 CLR595      0.0000
     62 C6        114.0610  114.6680  119.6730 C.2       3 CLR595      0.0000
     63 C7        113.5670  114.6290  118.2490 C.3       3 CLR595      0.0000
     64 C8        112.0740  114.9270  118.1580 C.3       3 CLR595      0.0000
     65 C9        111.3180  114.1290  119.2220 C.3       3 CLR595      0.0000
     66 C10       111.7550  114.5410  120.6320 C.3       3 CLR595      0.0000
     67 C11       109.7950  114.2030  119.0290 C.3       3 CLR595      0.0000
     68 C12       109.3410  113.9030  117.5910 C.3       3 CLR595      0.0000
     69 C13       110.0740  114.7750  116.5730 C.3       3 CLR595      0.0000
     70 C14       111.5690  114.5120  116.7850 C.3       3 CLR595      0.0000
     71 C15       112.2380  115.1620  115.5850 C.3       3 CLR595      0.0000
     72 C16       111.2560  114.8510  114.4500 C.3       3 CLR595      0.0000
     73 C17       109.9150  114.4180  115.0840 C.3       3 CLR595      0.0000
     74 C18       109.7360  116.2530  116.8150 C.3       3 CLR595      0.0000
     75 C19       111.2080  115.9250  120.9880 C.3       3 CLR595      0.0000
     76 C20       108.6930  115.0310  114.3570 C.3       3 CLR595      0.0000
     77 C21       107.4000  114.2770  114.6820 C.3       3 CLR595      0.0000
     78 C22       108.8560  115.1230  112.8290 C.3       3 CLR595      0.0000
     79 C23       108.6540  113.7960  112.1010 C.3       3 CLR595      0.0000
     80 C24       108.9540  113.9680  110.6120 C.3       3 CLR595      0.0000
     81 C25       108.7020  112.6850  109.8180 C.3       3 CLR595      0.0000
     82 C26       109.5940  111.5480  110.3130 C.3       3 CLR595      0.0000
     83 C27       107.2320  112.2760  109.8810 C.3       3 CLR595      0.0000
     84 O1        113.8750  113.6320  124.3050 O.3       3 CLR595      0.0000
@<TRIPOS>BOND
     1    1    2 1
     2    1   10 1
     3    2    3 1
     4    3    4 1
     5    3   28 1
     6    4    5 1
     7    5    6 2
     8    5   10 1
     9    6    7 1
    10    7    8 1
    11    8    9 1
    12    8   14 1
    13    9   10 1
    14    9   11 1
    15   10   19 1
    16   11   12 1
    17   12   13 1
    18   13   14 1
    19   13   17 1
    20   13   18 1
    21   14   15 1
    22   15   16 1
    23   16   17 1
    24   17   20 1
    25   20   21 1
    26   20   22 1
    27   22   23 1
    28   23   24 1
    29   24   25 1
    30   25   26 1
    31   25   27 1
    32   29   30 1
    33   29   38 1
    34   30   31 1
    35   31   32 1
    36   31   56 1
    37   32   33 1
    38   33   34 2
    39   33   38 1
    40   34   35 1
    41   35   36 1
    42   36   37 1
    43   36   42 1
    44   37   38 1
    45   37   39 1
    46   38   47 1
    47   39   40 1
    48   40   41 1
    49   41   42 1
    50   41   45 1
    51   41   46 1
    52   42   43 1
    53   43   44 1
    54   44   45 1
    55   45   48 1
    56   48   49 1
    57   48   50 1
    58   50   51 1
    59   51   52 1
    60   52   53 1
    61   53   54 1
    62   53   55 1
    63   57   58 1
    64   57   66 1
    65   58   59 1
    66   59   60 1
    67   59   84 1
    68   60   61 1
    69   61   62 2
    70   61   66 1
    71   62   63 1
    72   63   64 1
    73   64   65 1
    74   64   70 1
    75   65   66 1
    76   65   67 1
    77   66   75 1
    78   67   68 1
    79   68   69 1
    80   69   70 1
    81   69   73 1
    82   69   74 1
    83   70   71 1
    84   71   72 1
    85   72   73 1
    86   73   76 1
    87   76   77 1
    88   76   78 1
    89   78   79 1
    90   79   80 1
    91   80   81 1
    92   81   82 1
    93   81   83 1
@<TRIPOS>SUBSTRUCTURE
     1 CLR593      1 RESIDUE           4 R     CLR     0 ROOT
     2 CLR594     29 RESIDUE           4 R     CLR     0 ROOT
     3 CLR595     57 RESIDUE           4 R     CLR     0 ROOT
