@<TRIPOS>MOLECULE
CLR
140 155 5 0 0
SMALL
NO_CHARGES


@<TRIPOS>ATOM
      1 C1        121.1540  110.6690  107.3230 C.3       1 CLR422      0.0000
      2 C2        120.1300  111.0010  106.2350 C.3       1 CLR422      0.0000
      3 C3        118.7370  111.0590  106.8570 C.3       1 CLR422      0.0000
      4 C4        118.6840  112.2580  107.8060 C.3       1 CLR422      0.0000
      5 C5        119.7920  112.1310  108.8410 C.2       1 CLR422      0.0000
      6 C6        119.4890  112.3480  110.0900 C.2       1 CLR422      0.0000
      7 C7        120.4810  112.2600  111.2160 C.3       1 CLR422      0.0000
      8 C8        121.9130  112.3850  110.6780 C.3       1 CLR422      0.0000
      9 C9        122.0640  111.3500  109.5540 C.3       1 CLR422      0.0000
     10 C10       121.1770  111.7690  108.3920 C.3       1 CLR422      0.0000
     11 C11       123.5150  111.1660  109.1060 C.3       1 CLR422      0.0000
     12 C12       124.4720  110.9700  110.2910 C.3       1 CLR422      0.0000
     13 C13       124.3650  112.1120  111.3130 C.3       1 CLR422      0.0000
     14 C14       122.8870  112.0860  111.8130 C.3       1 CLR422      0.0000
     15 C15       122.9130  113.1010  112.9610 C.3       1 CLR422      0.0000
     16 C16       124.2410  112.7380  113.6760 C.3       1 CLR422      0.0000
     17 C17       125.1360  111.9890  112.6430 C.3       1 CLR422      0.0000
     18 C18       124.6600  113.4690  110.6510 C.3       1 CLR422      0.0000
     19 C19       121.7760  113.0420  107.7860 C.3       1 CLR422      0.0000
     20 C20       126.5830  112.5470  112.6320 C.3       1 CLR422      0.0000
     21 C21       127.5680  111.5080  112.0750 C.3       1 CLR422      0.0000
     22 C22       127.0670  112.9060  114.0460 C.3       1 CLR422      0.0000
     23 C23       128.5050  113.4300  114.0110 C.3       1 CLR422      0.0000
     24 C24       129.2590  112.8930  115.2300 C.3       1 CLR422      0.0000
     25 C25       130.7580  113.1820  115.1060 C.3       1 CLR422      0.0000
     26 C26       131.4940  112.5470  116.2850 C.3       1 CLR422      0.0000
     27 C27       131.3110  112.5930  113.8050 C.3       1 CLR422      0.0000
     28 O1        117.7630  111.2260  105.8240 O.3       1 CLR422      0.0000
     29 C1        139.5890  154.6450  131.4190 C.3       2 CLR423      0.0000
     30 C2        140.9650  155.2070  131.7870 C.3       2 CLR423      0.0000
     31 C3        140.8180  156.2320  132.9090 C.3       2 CLR423      0.0000
     32 C4        140.3480  155.5010  134.1660 C.3       2 CLR423      0.0000
     33 C5        139.0450  154.7820  133.8580 C.2       2 CLR423      0.0000
     34 C6        138.0620  154.9350  134.6980 C.2       2 CLR423      0.0000
     35 C7        136.7160  154.2890  134.5310 C.3       2 CLR423      0.0000
     36 C8        136.8100  153.0930  133.5770 C.3       2 CLR423      0.0000
     37 C9        137.5080  153.5660  132.2940 C.3       2 CLR423      0.0000
     38 C10       138.9480  153.9380  132.6200 C.3       2 CLR423      0.0000
     39 C11       137.4230  152.5310  131.1660 C.3       2 CLR423      0.0000
     40 C12       135.9870  152.0200  130.9410 C.3       2 CLR423      0.0000
     41 C13       135.3740  151.4660  132.2350 C.3       2 CLR423      0.0000
     42 C14       135.3890  152.6480  133.2560 C.3       2 CLR423      0.0000
     43 C15       134.5890  152.0830  134.4330 C.3       2 CLR423      0.0000
     44 C16       133.4020  151.4110  133.6980 C.3       2 CLR423      0.0000
     45 C17       133.8830  151.0670  132.2540 C.3       2 CLR423      0.0000
     46 C18       136.2400  150.3140  132.7620 C.3       2 CLR423      0.0000
     47 C19       139.7230  152.6460  132.9040 C.3       2 CLR423      0.0000
     48 C20       133.5850  149.5900  131.8800 C.3       2 CLR423      0.0000
     49 C21       133.4580  149.4560  130.3550 C.3       2 CLR423      0.0000
     50 C22       132.2930  149.0740  132.5440 C.3       2 CLR423      0.0000
     51 C23       131.8270  147.7330  131.9700 C.3       2 CLR423      0.0000
     52 C24       130.4080  147.4380  132.4620 C.3       2 CLR423      0.0000
     53 C25       129.5810  146.8220  131.3270 C.3       2 CLR423      0.0000
     54 C26       129.4940  147.8060  130.1590 C.3       2 CLR423      0.0000
     55 C27       130.2190  145.5230  130.8350 C.3       2 CLR423      0.0000
     56 O1        142.0850  156.8430  133.1660 O.3       2 CLR423      0.0000
     57 C1        120.3130  148.7080  100.7850 C.3       3 CLR424      0.0000
     58 C2        118.9480  148.8120  100.0940 C.3       3 CLR424      0.0000
     59 C3        118.9140  147.9550   98.8280 C.3       3 CLR424      0.0000
     60 C4        119.0880  146.4890   99.2320 C.3       3 CLR424      0.0000
     61 C5        120.3720  146.3470  100.0320 C.2       3 CLR424      0.0000
     62 C6        121.2180  145.4320   99.6520 C.2       3 CLR424      0.0000
     63 C7        122.5200  145.1870  100.3540 C.3       3 CLR424      0.0000
     64 C8        122.3730  145.6570  101.8050 C.3       3 CLR424      0.0000
     65 C9        121.9960  147.1440  101.7970 C.3       3 CLR424      0.0000
     66 C10       120.5940  147.2600  101.2060 C.3       3 CLR424      0.0000
     67 C11       122.0890  147.7810  103.1920 C.3       3 CLR424      0.0000
     68 C12       123.3130  147.3470  104.0170 C.3       3 CLR424      0.0000
     69 C13       123.5340  145.8290  104.0290 C.3       3 CLR424      0.0000
     70 C14       123.6920  145.4460  102.5260 C.3       3 CLR424      0.0000
     71 C15       124.1570  143.9900  102.5710 C.3       3 CLR424      0.0000
     72 C16       125.1270  144.0190  103.7720 C.3       3 CLR424      0.0000
     73 C17       124.8720  145.3140  104.5840 C.3       3 CLR424      0.0000
     74 C18       122.3350  145.0510  104.6020 C.3       3 CLR424      0.0000
     75 C19       119.5730  146.8480  102.2800 C.3       3 CLR424      0.0000
     76 C20       125.0920  144.9980  106.0890 C.3       3 CLR424      0.0000
     77 C21       124.7860  146.1220  107.0940 C.3       3 CLR424      0.0000
     78 C22       126.5980  144.7260  106.2110 C.3       3 CLR424      0.0000
     79 C23       127.3880  145.9890  105.8230 C.3       3 CLR424      0.0000
     80 C24       128.7450  145.6100  105.2320 C.3       3 CLR424      0.0000
     81 C25       129.4080  146.8480  104.6200 C.3       3 CLR424      0.0000
     82 C26       130.7520  146.4390  104.0180 C.3       3 CLR424      0.0000
     83 C27       128.5250  147.4310  103.5120 C.3       3 CLR424      0.0000
     84 O1        117.6490  148.1120   98.1830 O.3       3 CLR424      0.0000
     85 C1        114.6200  109.7530  110.1330 C.3       4 CLR425      0.0000
     86 C2        113.5070  110.1170  109.1470 C.3       4 CLR425      0.0000
     87 C3        112.1480  109.9800  109.8310 C.3       4 CLR425      0.0000
     88 C4        112.0610  111.0360  110.9350 C.3       4 CLR425      0.0000
     89 C5        113.2240  110.8380  111.8950 C.2       4 CLR425      0.0000
     90 C6        112.9580  110.7980  113.1690 C.2       4 CLR425      0.0000
     91 C7        113.9990  110.6100  114.2350 C.3       4 CLR425      0.0000
     92 C8        115.3950  110.9570  113.7050 C.3       4 CLR425      0.0000
     93 C9        115.6130  110.2110  112.3810 C.3       4 CLR425      0.0000
     94 C10       114.6120  110.7000  111.3400 C.3       4 CLR425      0.0000
     95 C11       117.0580  110.3250  111.8820 C.3       4 CLR425      0.0000
     96 C12       118.0970  109.9810  112.9640 C.3       4 CLR425      0.0000
     97 C13       117.8670  110.7840  114.2500 C.3       4 CLR425      0.0000
     98 C14       116.4150  110.4650  114.7230 C.3       4 CLR425      0.0000
     99 C15       116.3650  111.1300  116.1040 C.3       4 CLR425      0.0000
    100 C16       117.7460  110.7440  116.6970 C.3       4 CLR425      0.0000
    101 C17       118.6780  110.3900  115.4980 C.3       4 CLR425      0.0000
    102 C18       117.9930  112.2920  113.9730 C.3       4 CLR425      0.0000
    103 C19       115.0380  112.0990  110.8720 C.3       4 CLR425      0.0000
    104 C20       120.0740  111.0580  115.5810 C.3       4 CLR425      0.0000
    105 C21       121.1350  110.0950  115.0360 C.3       4 CLR425      0.0000
    106 C22       120.4750  111.4440  117.0140 C.3       4 CLR425      0.0000
    107 C23       121.8420  112.1320  117.0360 C.3       4 CLR425      0.0000
    108 C24       122.2170  112.4590  118.4840 C.3       4 CLR425      0.0000
    109 C25       123.6110  113.0900  118.5560 C.3       4 CLR425      0.0000
    110 C26       124.6580  112.1220  118.0030 C.3       4 CLR425      0.0000
    111 C27       123.6420  114.3960  117.7590 C.3       4 CLR425      0.0000
    112 O1        111.1080  110.2010  108.8760 O.3       4 CLR425      0.0000
    113 C1        150.9410  142.8370  112.3770 C.3       5 CLR426      0.0000
    114 C2        152.4410  142.6740  112.6360 C.3       5 CLR426      0.0000
    115 C3        153.1440  143.9940  112.3380 C.3       5 CLR426      0.0000
    116 C4        152.6980  145.0100  113.3900 C.3       5 CLR426      0.0000
    117 C5        151.1870  145.1520  113.3140 C.2       5 CLR426      0.0000
    118 C6        150.6930  146.3550  113.2790 C.2       5 CLR426      0.0000
    119 C7        149.2250  146.6680  113.2040 C.3       5 CLR426      0.0000
    120 C8        148.3480  145.4530  113.5330 C.3       5 CLR426      0.0000
    121 C9        148.9140  144.2090  112.8350 C.3       5 CLR426      0.0000
    122 C10       150.3380  143.9170  113.2860 C.3       5 CLR426      0.0000
    123 C11       147.9990  142.9960  113.0130 C.3       5 CLR426      0.0000
    124 C12       146.5840  143.3000  112.4960 C.3       5 CLR426      0.0000
    125 C13       145.9860  144.5440  113.1710 C.3       5 CLR426      0.0000
    126 C14       146.9810  145.7230  112.9200 C.3       5 CLR426      0.0000
    127 C15       146.2170  146.9300  113.4720 C.3       5 CLR426      0.0000
    128 C16       144.8100  146.6750  112.8730 C.3       5 CLR426      0.0000
    129 C17       144.6860  145.1440  112.5940 C.3       5 CLR426      0.0000
    130 C18       145.8700  144.3090  114.6840 C.3       5 CLR426      0.0000
    131 C19       150.2930  143.3850  114.7230 C.3       5 CLR426      0.0000
    132 C20       143.3450  144.6160  113.1620 C.3       5 CLR426      0.0000
    133 C21       142.9630  143.2220  112.6470 C.3       5 CLR426      0.0000
    134 C22       142.2000  145.5330  112.7170 C.3       5 CLR426      0.0000
    135 C23       141.1830  145.7200  113.8420 C.3       5 CLR426      0.0000
    136 C24       140.0080  146.5620  113.3370 C.3       5 CLR426      0.0000
    137 C25       140.4670  147.9790  112.9850 C.3       5 CLR426      0.0000
    138 C26       139.2930  148.7430  112.3730 C.3       5 CLR426      0.0000
    139 C27       140.9120  148.6990  114.2610 C.3       5 CLR426      0.0000
    140 O1        154.5590  143.8110  112.4140 O.3       5 CLR426      0.0000
@<TRIPOS>BOND
     1    1    2 1
     2    1   10 1
     3    2    3 1
     4    3    4 1
     5    3   28 1
     6    4    5 1
     7    5    6 2
     8    5   10 1
     9    6    7 1
    10    7    8 1
    11    8    9 1
    12    8   14 1
    13    9   10 1
    14    9   11 1
    15   10   19 1
    16   11   12 1
    17   12   13 1
    18   13   14 1
    19   13   17 1
    20   13   18 1
    21   14   15 1
    22   15   16 1
    23   16   17 1
    24   17   20 1
    25   20   21 1
    26   20   22 1
    27   22   23 1
    28   23   24 1
    29   24   25 1
    30   25   26 1
    31   25   27 1
    32   29   30 1
    33   29   38 1
    34   30   31 1
    35   31   32 1
    36   31   56 1
    37   32   33 1
    38   33   34 2
    39   33   38 1
    40   34   35 1
    41   35   36 1
    42   36   37 1
    43   36   42 1
    44   37   38 1
    45   37   39 1
    46   38   47 1
    47   39   40 1
    48   40   41 1
    49   41   42 1
    50   41   45 1
    51   41   46 1
    52   42   43 1
    53   43   44 1
    54   44   45 1
    55   45   48 1
    56   48   49 1
    57   48   50 1
    58   50   51 1
    59   51   52 1
    60   52   53 1
    61   53   54 1
    62   53   55 1
    63   57   58 1
    64   57   66 1
    65   58   59 1
    66   59   60 1
    67   59   84 1
    68   60   61 1
    69   61   62 2
    70   61   66 1
    71   62   63 1
    72   63   64 1
    73   64   65 1
    74   64   70 1
    75   65   66 1
    76   65   67 1
    77   66   75 1
    78   67   68 1
    79   68   69 1
    80   69   70 1
    81   69   73 1
    82   69   74 1
    83   70   71 1
    84   71   72 1
    85   72   73 1
    86   73   76 1
    87   76   77 1
    88   76   78 1
    89   78   79 1
    90   79   80 1
    91   80   81 1
    92   81   82 1
    93   81   83 1
    94   85   86 1
    95   85   94 1
    96   86   87 1
    97   87   88 1
    98   87  112 1
    99   88   89 1
   100   89   90 2
   101   89   94 1
   102   90   91 1
   103   91   92 1
   104   92   93 1
   105   92   98 1
   106   93   94 1
   107   93   95 1
   108   94  103 1
   109   95   96 1
   110   96   97 1
   111   97   98 1
   112   97  101 1
   113   97  102 1
   114   98   99 1
   115   99  100 1
   116  100  101 1
   117  101  104 1
   118  104  105 1
   119  104  106 1
   120  106  107 1
   121  107  108 1
   122  108  109 1
   123  109  110 1
   124  109  111 1
   125  113  114 1
   126  113  122 1
   127  114  115 1
   128  115  116 1
   129  115  140 1
   130  116  117 1
   131  117  118 2
   132  117  122 1
   133  118  119 1
   134  119  120 1
   135  120  121 1
   136  120  126 1
   137  121  122 1
   138  121  123 1
   139  122  131 1
   140  123  124 1
   141  124  125 1
   142  125  126 1
   143  125  129 1
   144  125  130 1
   145  126  127 1
   146  127  128 1
   147  128  129 1
   148  129  132 1
   149  132  133 1
   150  132  134 1
   151  134  135 1
   152  135  136 1
   153  136  137 1
   154  137  138 1
   155  137  139 1
@<TRIPOS>SUBSTRUCTURE
     1 CLR422      1 RESIDUE           4 R     CLR     0 ROOT
     2 CLR423     29 RESIDUE           4 R     CLR     0 ROOT
     3 CLR424     57 RESIDUE           4 R     CLR     0 ROOT
     4 CLR425     85 RESIDUE           4 R     CLR     0 ROOT
     5 CLR426    113 RESIDUE           4 R     CLR     0 ROOT
