@<TRIPOS>MOLECULE
CLR
140 155 5 0 0
SMALL
NO_CHARGES


@<TRIPOS>ATOM
      1 C1        100.5580  101.9410   83.0180 C.3       1 CLR497      0.0000
      2 C2        100.3870  102.2860   81.5370 C.3       1 CLR497      0.0000
      3 C3         99.3990  101.3090   80.9080 C.3       1 CLR497      0.0000
      4 C4         98.0180  101.5540   81.5200 C.3       1 CLR497      0.0000
      5 C5         98.0940  101.4420   83.0360 C.2       1 CLR497      0.0000
      6 C6         97.1630  100.7710   83.6530 C.2       1 CLR497      0.0000
      7 C7         97.1180  100.5860   85.1450 C.3       1 CLR497      0.0000
      8 C8         97.9660  101.6550   85.8480 C.3       1 CLR497      0.0000
      9 C9         99.3560  101.6220   85.1980 C.3       1 CLR497      0.0000
     10 C10        99.2250  102.1060   83.7620 C.3       1 CLR497      0.0000
     11 C11       100.3970  102.4420   85.9640 C.3       1 CLR497      0.0000
     12 C12       100.4170  102.1050   87.4620 C.3       1 CLR497      0.0000
     13 C13        99.0260  102.2640   88.0840 C.3       1 CLR497      0.0000
     14 C14        98.0650  101.2970   87.3260 C.3       1 CLR497      0.0000
     15 C15        96.7710  101.4240   88.1430 C.3       1 CLR497      0.0000
     16 C16        97.3010  101.4460   89.6040 C.3       1 CLR497      0.0000
     17 C17        98.8210  101.7780   89.5270 C.3       1 CLR497      0.0000
     18 C18        98.5360  103.7150   87.9350 C.3       1 CLR497      0.0000
     19 C19        98.8550  103.5850   83.8100 C.3       1 CLR497      0.0000
     20 C20        99.2990  102.7920   90.5940 C.3       1 CLR497      0.0000
     21 C21       100.6900  102.3930   91.0990 C.3       1 CLR497      0.0000
     22 C22        98.3880  102.8710   91.8270 C.3       1 CLR497      0.0000
     23 C23        98.8020  104.0810   92.6670 C.3       1 CLR497      0.0000
     24 C24        98.8800  103.6850   94.1440 C.3       1 CLR497      0.0000
     25 C25        99.4190  104.8480   94.9850 C.3       1 CLR497      0.0000
     26 C26        99.5660  104.3980   96.4390 C.3       1 CLR497      0.0000
     27 C27       100.7890  105.2930   94.4670 C.3       1 CLR497      0.0000
     28 O1         99.3450  101.5440   79.4990 O.3       1 CLR497      0.0000
     29 C1        123.2450  101.5390  106.3880 C.3       2 CLR498      0.0000
     30 C2        122.7290  101.4270  107.8230 C.3       2 CLR498      0.0000
     31 C3        123.7000  102.1450  108.7520 C.3       2 CLR498      0.0000
     32 C4        123.6180  103.6430  108.4550 C.3       2 CLR498      0.0000
     33 C5        123.9420  103.8820  106.9890 C.2       2 CLR498      0.0000
     34 C6        124.7640  104.8490  106.6890 C.2       2 CLR498      0.0000
     35 C7        125.1700  105.1960  105.2820 C.3       2 CLR498      0.0000
     36 C8        124.1970  104.5950  104.2580 C.3       2 CLR498      0.0000
     37 C9        124.0240  103.1120  104.6130 C.3       2 CLR498      0.0000
     38 C10       123.3080  103.0080  105.9480 C.3       2 CLR498      0.0000
     39 C11       123.2870  102.3220  103.5310 C.3       2 CLR498      0.0000
     40 C12       123.8970  102.5500  102.1390 C.3       2 CLR498      0.0000
     41 C13       123.9290  104.0410  101.7760 C.3       2 CLR498      0.0000
     42 C14       124.8100  104.7290  102.8660 C.3       2 CLR498      0.0000
     43 C15       124.9420  106.1550  102.3200 C.3       2 CLR498      0.0000
     44 C16       125.2050  105.8930  100.8130 C.3       2 CLR498      0.0000
     45 C17       124.6520  104.4740  100.4840 C.3       2 CLR498      0.0000
     46 C18       122.5100  104.6320  101.8140 C.3       2 CLR498      0.0000
     47 C19       121.8840  103.5350  105.7530 C.3       2 CLR498      0.0000
     48 C20       123.7820  104.4950   99.2010 C.3       2 CLR498      0.0000
     49 C21       123.6720  103.1020   98.5660 C.3       2 CLR498      0.0000
     50 C22       124.3770  105.4090   98.1200 C.3       2 CLR498      0.0000
     51 C23       123.4060  105.5250   96.9420 C.3       2 CLR498      0.0000
     52 C24       124.1300  106.1060   95.7250 C.3       2 CLR498      0.0000
     53 C25       123.1830  106.1840   94.5230 C.3       2 CLR498      0.0000
     54 C26       122.5930  104.8090   94.2030 C.3       2 CLR498      0.0000
     55 C27       122.0600  107.1840   94.8020 C.3       2 CLR498      0.0000
     56 O1        123.3240  101.9040  110.1100 O.3       2 CLR498      0.0000
     57 C1        113.4420  137.6640   87.5250 C.3       3 CLR499      0.0000
     58 C2        112.5980  138.4370   86.5110 C.3       3 CLR499      0.0000
     59 C3        112.9650  137.9980   85.0950 C.3       3 CLR499      0.0000
     60 C4        112.5640  136.5320   84.9170 C.3       3 CLR499      0.0000
     61 C5        113.2390  135.6930   85.9920 C.2       3 CLR499      0.0000
     62 C6        113.8430  134.5970   85.6320 C.2       3 CLR499      0.0000
     63 C7        114.5480  133.6760   86.5900 C.3       3 CLR499      0.0000
     64 C8        114.0750  133.9070   88.0320 C.3       3 CLR499      0.0000
     65 C9        114.1580  135.4130   88.3120 C.3       3 CLR499      0.0000
     66 C10       113.1800  136.1570   87.4150 C.3       3 CLR499      0.0000
     67 C11       113.9300  135.7620   89.7840 C.3       3 CLR499      0.0000
     68 C12       114.8390  134.9430   90.7090 C.3       3 CLR499      0.0000
     69 C13       114.6720  133.4370   90.4680 C.3       3 CLR499      0.0000
     70 C14       115.0220  133.1660   88.9710 C.3       3 CLR499      0.0000
     71 C15       114.9870  131.6340   88.9040 C.3       3 CLR499      0.0000
     72 C16       115.6980  131.2350   90.2270 C.3       3 CLR499      0.0000
     73 C17       115.6530  132.4800   91.1640 C.3       3 CLR499      0.0000
     74 C18       113.2220  133.0100   90.7480 C.3       3 CLR499      0.0000
     75 C19       111.7600  135.8510   87.8980 C.3       3 CLR499      0.0000
     76 C20       115.2750  132.1400   92.6280 C.3       3 CLR499      0.0000
     77 C21       116.0350  133.0750   93.5820 C.3       3 CLR499      0.0000
     78 C22       115.6120  130.6920   93.0200 C.3       3 CLR499      0.0000
     79 C23       115.2680  130.4620   94.4930 C.3       3 CLR499      0.0000
     80 C24       116.0040  129.2310   95.0220 C.3       3 CLR499      0.0000
     81 C25       116.4520  129.4970   96.4640 C.3       3 CLR499      0.0000
     82 C26       117.4220  130.6800   96.5060 C.3       3 CLR499      0.0000
     83 C27       115.2460  129.7850   97.3620 C.3       3 CLR499      0.0000
     84 O1        112.2510  138.8060   84.1570 O.3       3 CLR499      0.0000
     85 C1         83.9370  103.7040   88.6350 C.3       4 CLR500      0.0000
     86 C2         83.0760  103.8200   87.3740 C.3       4 CLR500      0.0000
     87 C3         81.6010  103.8350   87.7650 C.3       4 CLR500      0.0000
     88 C4         81.3250  105.1270   88.5360 C.3       4 CLR500      0.0000
     89 C5         82.2440  105.1840   89.7470 C.2       4 CLR500      0.0000
     90 C6         81.7180  105.4800   90.9000 C.2       4 CLR500      0.0000
     91 C7         82.5060  105.5720   92.1760 C.3       4 CLR500      0.0000
     92 C8         84.0000  105.7590   91.8810 C.3       4 CLR500      0.0000
     93 C9         84.4220  104.6690   90.8860 C.3       4 CLR500      0.0000
     94 C10        83.7070  104.9020   89.5650 C.3       4 CLR500      0.0000
     95 C11        85.9400  104.5880   90.6960 C.3       4 CLR500      0.0000
     96 C12        86.6920  104.4850   92.0330 C.3       4 CLR500      0.0000
     97 C13        86.3000  105.6360   92.9620 C.3       4 CLR500      0.0000
     98 C14        84.7580  105.5770   93.1880 C.3       4 CLR500      0.0000
     99 C15        84.5470  106.6690   94.2470 C.3       4 CLR500      0.0000
    100 C16        85.7560  106.4470   95.1960 C.3       4 CLR500      0.0000
    101 C17        86.7780  105.5660   94.4170 C.3       4 CLR500      0.0000
    102 C18        86.6900  106.9800   92.3240 C.3       4 CLR500      0.0000
    103 C19        84.3020  106.1600   88.9250 C.3       4 CLR500      0.0000
    104 C20        88.2610  105.9780   94.5750 C.3       4 CLR500      0.0000
    105 C21        89.0870  104.7120   94.8610 C.3       4 CLR500      0.0000
    106 C22        88.4980  107.0940   95.6220 C.3       4 CLR500      0.0000
    107 C23        89.0030  106.6050   96.9860 C.3       4 CLR500      0.0000
    108 C24        89.2240  107.7990   97.9180 C.3       4 CLR500      0.0000
    109 C25        89.8000  107.3300   99.2580 C.3       4 CLR500      0.0000
    110 C26        88.8410  106.3500   99.9360 C.3       4 CLR500      0.0000
    111 C27        91.1570  106.6590   99.0380 C.3       4 CLR500      0.0000
    112 O1         80.7980  103.8040   86.5830 O.3       4 CLR500      0.0000
    113 C1         98.2250  101.3250  110.5280 C.3       5 CLR502      0.0000
    114 C2         98.5730  101.5190  112.0070 C.3       5 CLR502      0.0000
    115 C3        100.0880  101.4580  112.1790 C.3       5 CLR502      0.0000
    116 C4        100.6880  102.6850  111.4910 C.3       5 CLR502      0.0000
    117 C5        100.2790  102.6590  110.0270 C.2       5 CLR502      0.0000
    118 C6        101.2110  102.8280  109.1360 C.2       5 CLR502      0.0000
    119 C7        100.9690  102.8290  107.6530 C.3       5 CLR502      0.0000
    120 C8         99.4880  103.0490  107.3200 C.3       5 CLR502      0.0000
    121 C9         98.6410  102.1190  108.2000 C.3       5 CLR502      0.0000
    122 C10        98.8360  102.4430  109.6750 C.3       5 CLR502      0.0000
    123 C11        97.1630  102.1420  107.7990 C.3       5 CLR502      0.0000
    124 C12        96.9810  101.8350  106.3050 C.3       5 CLR502      0.0000
    125 C13        97.8000  102.7890  105.4250 C.3       5 CLR502      0.0000
    126 C14        99.2910  102.6430  105.8650 C.3       5 CLR502      0.0000
    127 C15       100.0290  103.4930  104.8260 C.3       5 CLR502      0.0000
    128 C16        99.3070  103.0790  103.5180 C.3       5 CLR502      0.0000
    129 C17        97.9190  102.4900  103.9170 C.3       5 CLR502      0.0000
    130 C18        97.3380  104.2360  105.6520 C.3       5 CLR502      0.0000
    131 C19        98.1010  103.7510  109.9910 C.3       5 CLR502      0.0000
    132 C20        96.7680  103.0460  103.0400 C.3       5 CLR502      0.0000
    133 C21        95.6280  102.0230  102.9410 C.3       5 CLR502      0.0000
    134 C22        97.2320  103.3530  101.6060 C.3       5 CLR502      0.0000
    135 C23        96.0790  103.8430  100.7260 C.3       5 CLR502      0.0000
    136 C24        96.5590  103.9610   99.2780 C.3       5 CLR502      0.0000
    137 C25        95.3800  104.3280   98.3730 C.3       5 CLR502      0.0000
    138 C26        94.8380  105.7080   98.7450 C.3       5 CLR502      0.0000
    139 C27        95.8260  104.3200   96.9100 C.3       5 CLR502      0.0000
    140 O1        100.4140  101.4720  113.5700 O.3       5 CLR502      0.0000
@<TRIPOS>BOND
     1    1    2 1
     2    1   10 1
     3    2    3 1
     4    3    4 1
     5    3   28 1
     6    4    5 1
     7    5    6 2
     8    5   10 1
     9    6    7 1
    10    7    8 1
    11    8    9 1
    12    8   14 1
    13    9   10 1
    14    9   11 1
    15   10   19 1
    16   11   12 1
    17   12   13 1
    18   13   14 1
    19   13   17 1
    20   13   18 1
    21   14   15 1
    22   15   16 1
    23   16   17 1
    24   17   20 1
    25   20   21 1
    26   20   22 1
    27   22   23 1
    28   23   24 1
    29   24   25 1
    30   25   26 1
    31   25   27 1
    32   29   30 1
    33   29   38 1
    34   30   31 1
    35   31   32 1
    36   31   56 1
    37   32   33 1
    38   33   34 2
    39   33   38 1
    40   34   35 1
    41   35   36 1
    42   36   37 1
    43   36   42 1
    44   37   38 1
    45   37   39 1
    46   38   47 1
    47   39   40 1
    48   40   41 1
    49   41   42 1
    50   41   45 1
    51   41   46 1
    52   42   43 1
    53   43   44 1
    54   44   45 1
    55   45   48 1
    56   48   49 1
    57   48   50 1
    58   50   51 1
    59   51   52 1
    60   52   53 1
    61   53   54 1
    62   53   55 1
    63   57   58 1
    64   57   66 1
    65   58   59 1
    66   59   60 1
    67   59   84 1
    68   60   61 1
    69   61   62 2
    70   61   66 1
    71   62   63 1
    72   63   64 1
    73   64   65 1
    74   64   70 1
    75   65   66 1
    76   65   67 1
    77   66   75 1
    78   67   68 1
    79   68   69 1
    80   69   70 1
    81   69   73 1
    82   69   74 1
    83   70   71 1
    84   71   72 1
    85   72   73 1
    86   73   76 1
    87   76   77 1
    88   76   78 1
    89   78   79 1
    90   79   80 1
    91   80   81 1
    92   81   82 1
    93   81   83 1
    94   85   86 1
    95   85   94 1
    96   86   87 1
    97   87   88 1
    98   87  112 1
    99   88   89 1
   100   89   90 2
   101   89   94 1
   102   90   91 1
   103   91   92 1
   104   92   93 1
   105   92   98 1
   106   93   94 1
   107   93   95 1
   108   94  103 1
   109   95   96 1
   110   96   97 1
   111   97   98 1
   112   97  101 1
   113   97  102 1
   114   98   99 1
   115   99  100 1
   116  100  101 1
   117  101  104 1
   118  104  105 1
   119  104  106 1
   120  106  107 1
   121  107  108 1
   122  108  109 1
   123  109  110 1
   124  109  111 1
   125  113  114 1
   126  113  122 1
   127  114  115 1
   128  115  116 1
   129  115  140 1
   130  116  117 1
   131  117  118 2
   132  117  122 1
   133  118  119 1
   134  119  120 1
   135  120  121 1
   136  120  126 1
   137  121  122 1
   138  121  123 1
   139  122  131 1
   140  123  124 1
   141  124  125 1
   142  125  126 1
   143  125  129 1
   144  125  130 1
   145  126  127 1
   146  127  128 1
   147  128  129 1
   148  129  132 1
   149  132  133 1
   150  132  134 1
   151  134  135 1
   152  135  136 1
   153  136  137 1
   154  137  138 1
   155  137  139 1
@<TRIPOS>SUBSTRUCTURE
     1 CLR497      1 RESIDUE           4 R     CLR     0 ROOT
     2 CLR498     29 RESIDUE           4 R     CLR     0 ROOT
     3 CLR499     57 RESIDUE           4 R     CLR     0 ROOT
     4 CLR500     85 RESIDUE           4 R     CLR     0 ROOT
     5 CLR502    113 RESIDUE           4 R     CLR     0 ROOT
