@<TRIPOS>MOLECULE
CLR
112 124 4 0 0
SMALL
NO_CHARGES


@<TRIPOS>ATOM
      1 C1        112.1870  113.7770   77.3420 C.3       1 CLR493      0.0000
      2 C2        111.0100  114.4810   76.6590 C.3       1 CLR493      0.0000
      3 C3        109.8330  113.5160   76.5450 C.3       1 CLR493      0.0000
      4 C4        109.3340  113.2190   77.9600 C.3       1 CLR493      0.0000
      5 C5        110.4870  112.6230   78.7520 C.2       1 CLR493      0.0000
      6 C6        110.2680  111.5120   79.3930 C.2       1 CLR493      0.0000
      7 C7        111.3040  110.8040   80.2170 C.3       1 CLR493      0.0000
      8 C8        112.4390  111.7570   80.6110 C.3       1 CLR493      0.0000
      9 C9        112.9290  112.4870   79.3510 C.3       1 CLR493      0.0000
     10 C10       111.8080  113.3360   78.7610 C.3       1 CLR493      0.0000
     11 C11       114.1970  113.3100   79.6140 C.3       1 CLR493      0.0000
     12 C12       115.3030  112.4910   80.3010 C.3       1 CLR493      0.0000
     13 C13       114.7890  111.7980   81.5670 C.3       1 CLR493      0.0000
     14 C14       113.5800  110.9060   81.1510 C.3       1 CLR493      0.0000
     15 C15       113.2910  110.1230   82.4370 C.3       1 CLR493      0.0000
     16 C16       114.7210  109.7590   82.9190 C.3       1 CLR493      0.0000
     17 C17       115.7030  110.7520   82.2250 C.3       1 CLR493      0.0000
     18 C18       114.3210  112.8430   82.5940 C.3       1 CLR493      0.0000
     19 C19       111.6400  114.5880   79.6290 C.3       1 CLR493      0.0000
     20 C20       116.7560  111.3650   83.1810 C.3       1 CLR493      0.0000
     21 C21       118.1080  111.4660   82.4670 C.3       1 CLR493      0.0000
     22 C22       116.9720  110.5420   84.4580 C.3       1 CLR493      0.0000
     23 C23       117.7970  111.3510   85.4580 C.3       1 CLR493      0.0000
     24 C24       118.0590  110.5010   86.7040 C.3       1 CLR493      0.0000
     25 C25       118.8990  111.2910   87.7100 C.3       1 CLR493      0.0000
     26 C26       119.1350  110.4360   88.9560 C.3       1 CLR493      0.0000
     27 C27       120.2490  111.6590   87.0890 C.3       1 CLR493      0.0000
     28 O1        108.7850  114.1190   75.7830 O.3       1 CLR493      0.0000
     29 C1        128.8260  108.0130  103.6790 C.3       2 CLR494      0.0000
     30 C2        129.5520  108.2720  105.0020 C.3       2 CLR494      0.0000
     31 C3        130.4160  109.5210  104.8650 C.3       2 CLR494      0.0000
     32 C4        129.4830  110.7230  104.7150 C.3       2 CLR494      0.0000
     33 C5        128.6080  110.5060  103.4910 C.2       2 CLR494      0.0000
     34 C6        128.5010  111.4850  102.6390 C.2       2 CLR494      0.0000
     35 C7        127.6730  111.4190  101.3860 C.3       2 CLR494      0.0000
     36 C8        126.6460  110.2810  101.4560 C.3       2 CLR494      0.0000
     37 C9        127.3810  109.0080  101.9000 C.3       2 CLR494      0.0000
     38 C10       127.9090  109.1890  103.3170 C.3       2 CLR494      0.0000
     39 C11       126.5170  107.7490  101.7670 C.3       2 CLR494      0.0000
     40 C12       125.9160  107.6040  100.3570 C.3       2 CLR494      0.0000
     41 C13       125.1190  108.8580   99.9810 C.3       2 CLR494      0.0000
     42 C14       126.0870  110.0810  100.0530 C.3       2 CLR494      0.0000
     43 C15       125.2130  111.2200   99.5130 C.3       2 CLR494      0.0000
     44 C16       124.4660  110.5370   98.3360 C.3       2 CLR494      0.0000
     45 C17       124.6040  108.9970   98.5400 C.3       2 CLR494      0.0000
     46 C18       123.9710  109.0400  100.9830 C.3       2 CLR494      0.0000
     47 C19       126.7140  109.1920  104.2760 C.3       2 CLR494      0.0000
     48 C20       123.3070  108.1890   98.2740 C.3       2 CLR494      0.0000
     49 C21       123.6470  106.9130   97.4870 C.3       2 CLR494      0.0000
     50 C22       122.1730  108.9830   97.5830 C.3       2 CLR494      0.0000
     51 C23       122.1460  108.9060   96.0490 C.3       2 CLR494      0.0000
     52 C24       120.8630  109.5720   95.5450 C.3       2 CLR494      0.0000
     53 C25       120.8500  109.7030   94.0180 C.3       2 CLR494      0.0000
     54 C26       121.9200  110.7000   93.5750 C.3       2 CLR494      0.0000
     55 C27       121.1080  108.3490   93.3540 C.3       2 CLR494      0.0000
     56 O1        131.2170  109.6800  106.0380 O.3       2 CLR494      0.0000
     57 C1         83.0390  105.1430   89.9500 C.3       3 CLR495      0.0000
     58 C2         81.9920  105.4220   88.8680 C.3       3 CLR495      0.0000
     59 C3         80.5940  105.2470   89.4550 C.3       3 CLR495      0.0000
     60 C4         80.3760  106.3450   90.4970 C.3       3 CLR495      0.0000
     61 C5         81.4700  106.2540   91.5500 C.2       3 CLR495      0.0000
     62 C6         81.1130  106.2850   92.8010 C.2       3 CLR495      0.0000
     63 C7         82.0830  106.2050   93.9450 C.3       3 CLR495      0.0000
     64 C8         83.5010  106.5740   93.4890 C.3       3 CLR495      0.0000
     65 C9         83.8350  105.7400   92.2450 C.3       3 CLR495      0.0000
     66 C10        82.9000  106.1370   91.1100 C.3       3 CLR495      0.0000
     67 C11        85.3090  105.8560   91.8370 C.3       3 CLR495      0.0000
     68 C12        86.2770  105.6010   93.0070 C.3       3 CLR495      0.0000
     69 C13        85.9370  106.4930   94.2030 C.3       3 CLR495      0.0000
     70 C14        84.4600  106.2060   94.6120 C.3       3 CLR495      0.0000
     71 C15        84.3220  107.0100   95.9120 C.3       3 CLR495      0.0000
     72 C16        85.6680  106.7080   96.6260 C.3       3 CLR495      0.0000
     73 C17        86.6490  106.1930   95.5290 C.3       3 CLR495      0.0000
     74 C18        86.0860  107.9740   93.8160 C.3       3 CLR495      0.0000
     75 C19        83.3060  107.5300   90.6230 C.3       3 CLR495      0.0000
     76 C20        88.0780  106.7870   95.5920 C.3       3 CLR495      0.0000
     77 C21        89.0970  105.6370   95.5410 C.3       3 CLR495      0.0000
     78 C22        88.2990  107.7370   96.7940 C.3       3 CLR495      0.0000
     79 C23        89.1520  107.1920   97.9440 C.3       3 CLR495      0.0000
     80 C24        89.2110  108.2620   99.0390 C.3       3 CLR495      0.0000
     81 C25        90.1320  107.8280  100.1820 C.3       3 CLR495      0.0000
     82 C26        89.6410  106.5160  100.7960 C.3       3 CLR495      0.0000
     83 C27        91.5570  107.6600   99.6570 C.3       3 CLR495      0.0000
     84 O1         79.6200  105.3720   88.4160 O.3       3 CLR495      0.0000
     85 C1        101.4330  103.3260  110.9130 C.3       4 CLR496      0.0000
     86 C2        102.4290  103.7670  111.9890 C.3       4 CLR496      0.0000
     87 C3        103.8530  103.4460  111.5450 C.3       4 CLR496      0.0000
     88 C4        104.1730  104.3110  110.3260 C.3       4 CLR496      0.0000
     89 C5        103.1500  104.0200  109.2410 C.2       4 CLR496      0.0000
     90 C6        103.5900  103.7500  108.0460 C.2       4 CLR496      0.0000
     91 C7        102.6950  103.4440  106.8790 C.3       4 CLR496      0.0000
     92 C8        101.2740  103.9660  107.1260 C.3       4 CLR496      0.0000
     93 C9        100.8120  103.4630  108.5010 C.3       4 CLR496      0.0000
     94 C10       101.6920  104.0580  109.5910 C.3       4 CLR496      0.0000
     95 C11        99.3240  103.7400  108.7470 C.3       4 CLR496      0.0000
     96 C12        98.4400  103.2380  107.5930 C.3       4 CLR496      0.0000
     97 C13        98.8910  103.8110  106.2420 C.3       4 CLR496      0.0000
     98 C14       100.3760  103.3690  106.0520 C.3       4 CLR496      0.0000
     99 C15       100.6700  103.8040  104.6140 C.3       4 CLR496      0.0000
    100 C16        99.3850  103.3340  103.8880 C.3       4 CLR496      0.0000
    101 C17        98.2450  103.2670  104.9510 C.3       4 CLR496      0.0000
    102 C18        98.8230  105.3430  106.2750 C.3       4 CLR496      0.0000
    103 C19       101.3200  105.5360  109.7580 C.3       4 CLR496      0.0000
    104 C20        96.9770  104.0210  104.4740 C.3       4 CLR496      0.0000
    105 C21        95.7210  103.4900  105.1780 C.3       4 CLR496      0.0000
    106 C22        96.7590  103.8590  102.9620 C.3       4 CLR496      0.0000
    107 C23        95.5200  104.6180  102.4880 C.3       4 CLR496      0.0000
    108 C24        95.2790  104.2750  101.0170 C.3       4 CLR496      0.0000
    109 C25        93.9800  104.9140  100.5250 C.3       4 CLR496      0.0000
    110 C26        93.7630  104.5280   99.0620 C.3       4 CLR496      0.0000
    111 C27        92.7990  104.4020  101.3540 C.3       4 CLR496      0.0000
    112 O1        104.7660  103.7580  112.5990 O.3       4 CLR496      0.0000
@<TRIPOS>BOND
     1    1    2 1
     2    1   10 1
     3    2    3 1
     4    3    4 1
     5    3   28 1
     6    4    5 1
     7    5    6 2
     8    5   10 1
     9    6    7 1
    10    7    8 1
    11    8    9 1
    12    8   14 1
    13    9   10 1
    14    9   11 1
    15   10   19 1
    16   11   12 1
    17   12   13 1
    18   13   14 1
    19   13   17 1
    20   13   18 1
    21   14   15 1
    22   15   16 1
    23   16   17 1
    24   17   20 1
    25   20   21 1
    26   20   22 1
    27   22   23 1
    28   23   24 1
    29   24   25 1
    30   25   26 1
    31   25   27 1
    32   29   30 1
    33   29   38 1
    34   30   31 1
    35   31   32 1
    36   31   56 1
    37   32   33 1
    38   33   34 2
    39   33   38 1
    40   34   35 1
    41   35   36 1
    42   36   37 1
    43   36   42 1
    44   37   38 1
    45   37   39 1
    46   38   47 1
    47   39   40 1
    48   40   41 1
    49   41   42 1
    50   41   45 1
    51   41   46 1
    52   42   43 1
    53   43   44 1
    54   44   45 1
    55   45   48 1
    56   48   49 1
    57   48   50 1
    58   50   51 1
    59   51   52 1
    60   52   53 1
    61   53   54 1
    62   53   55 1
    63   57   58 1
    64   57   66 1
    65   58   59 1
    66   59   60 1
    67   59   84 1
    68   60   61 1
    69   61   62 2
    70   61   66 1
    71   62   63 1
    72   63   64 1
    73   64   65 1
    74   64   70 1
    75   65   66 1
    76   65   67 1
    77   66   75 1
    78   67   68 1
    79   68   69 1
    80   69   70 1
    81   69   73 1
    82   69   74 1
    83   70   71 1
    84   71   72 1
    85   72   73 1
    86   73   76 1
    87   76   77 1
    88   76   78 1
    89   78   79 1
    90   79   80 1
    91   80   81 1
    92   81   82 1
    93   81   83 1
    94   85   86 1
    95   85   94 1
    96   86   87 1
    97   87   88 1
    98   87  112 1
    99   88   89 1
   100   89   90 2
   101   89   94 1
   102   90   91 1
   103   91   92 1
   104   92   93 1
   105   92   98 1
   106   93   94 1
   107   93   95 1
   108   94  103 1
   109   95   96 1
   110   96   97 1
   111   97   98 1
   112   97  101 1
   113   97  102 1
   114   98   99 1
   115   99  100 1
   116  100  101 1
   117  101  104 1
   118  104  105 1
   119  104  106 1
   120  106  107 1
   121  107  108 1
   122  108  109 1
   123  109  110 1
   124  109  111 1
@<TRIPOS>SUBSTRUCTURE
     1 CLR493      1 RESIDUE           4 P     CLR     0 ROOT
     2 CLR494     29 RESIDUE           4 P     CLR     0 ROOT
     3 CLR495     57 RESIDUE           4 P     CLR     0 ROOT
     4 CLR496     85 RESIDUE           4 P     CLR     0 ROOT
