@<TRIPOS>MOLECULE
CLR
112 124 4 0 0
SMALL
NO_CHARGES


@<TRIPOS>ATOM
      1 C1         95.8590   97.9300  140.3100 C.3       1 CLR426      0.0000
      2 C2         95.6280   98.9200  141.4560 C.3       1 CLR426      0.0000
      3 C3         96.7990   98.8470  142.4320 C.3       1 CLR426      0.0000
      4 C4         98.0450   99.3710  141.7170 C.3       1 CLR426      0.0000
      5 C5         98.2800   98.5400  140.4660 C.2       1 CLR426      0.0000
      6 C6         99.4820   98.0850  140.2600 C.2       1 CLR426      0.0000
      7 C7         99.8770   97.2510  139.0740 C.3       1 CLR426      0.0000
      8 C8         98.8460   97.3420  137.9420 C.3       1 CLR426      0.0000
      9 C9         97.4400   97.1730  138.5350 C.3       1 CLR426      0.0000
     10 C10        97.1340   98.2830  139.5330 C.3       1 CLR426      0.0000
     11 C11        96.3700   97.0690  137.4460 C.3       1 CLR426      0.0000
     12 C12        96.7010   95.9520  136.4440 C.3       1 CLR426      0.0000
     13 C13        98.0920   96.1390  135.8200 C.3       1 CLR426      0.0000
     14 C14        99.1080   96.1700  137.0050 C.3       1 CLR426      0.0000
     15 C15       100.4600   96.1700  136.2850 C.3       1 CLR426      0.0000
     16 C16       100.2190   95.0850  135.2040 C.3       1 CLR426      0.0000
     17 C17        98.6800   95.0000  134.9600 C.3       1 CLR426      0.0000
     18 C18        98.1540   97.4760  135.0650 C.3       1 CLR426      0.0000
     19 C19        96.8900   99.5840  138.7580 C.3       1 CLR426      0.0000
     20 C20        98.3390   95.0500  133.4460 C.3       1 CLR426      0.0000
     21 C21        96.9680   94.4160  133.1700 C.3       1 CLR426      0.0000
     22 C22        99.3870   94.2900  132.6140 C.3       1 CLR426      0.0000
     23 C23        99.0030   94.1830  131.1350 C.3       1 CLR426      0.0000
     24 C24        99.9980   93.2560  130.4340 C.3       1 CLR426      0.0000
     25 C25        99.5310   92.9590  129.0070 C.3       1 CLR426      0.0000
     26 C26       100.5470   92.0370  128.3340 C.3       1 CLR426      0.0000
     27 C27        98.1760   92.2480  129.0500 C.3       1 CLR426      0.0000
     28 O1         96.5230   99.6660  143.5710 O.3       1 CLR426      0.0000
     29 C1         76.9440  100.8190   93.0740 C.3       2 CLR427      0.0000
     30 C2         75.9790  100.0380   92.1750 C.3       2 CLR427      0.0000
     31 C3         76.0980  100.5250   90.7320 C.3       2 CLR427      0.0000
     32 C4         77.5000  100.1760   90.2260 C.3       2 CLR427      0.0000
     33 C5         78.5220  100.8150   91.1520 C.2       2 CLR427      0.0000
     34 C6         79.4670  101.5250   90.6090 C.2       2 CLR427      0.0000
     35 C7         80.5460  102.2150   91.3930 C.3       2 CLR427      0.0000
     36 C8         80.7070  101.5730   92.7760 C.3       2 CLR427      0.0000
     37 C9         79.3250  101.4980   93.4430 C.3       2 CLR427      0.0000
     38 C10        78.3960  100.5980   92.6330 C.3       2 CLR427      0.0000
     39 C11        79.4100  101.0700   94.9140 C.3       2 CLR427      0.0000
     40 C12        80.4130  101.9160   95.7160 C.3       2 CLR427      0.0000
     41 C13        81.7910  101.9340   95.0450 C.3       2 CLR427      0.0000
     42 C14        81.6060  102.4850   93.5980 C.3       2 CLR427      0.0000
     43 C15        83.0550  102.6220   93.1110 C.3       2 CLR427      0.0000
     44 C16        83.7630  103.2090   94.3610 C.3       2 CLR427      0.0000
     45 C17        82.8350  102.9240   95.5820 C.3       2 CLR427      0.0000
     46 C18        82.3700  100.5110   94.9840 C.3       2 CLR427      0.0000
     47 C19        78.7690   99.1330   92.9040 C.3       2 CLR427      0.0000
     48 C20        83.5750  102.4120   96.8400 C.3       2 CLR427      0.0000
     49 C21        82.9840  103.0940   98.0800 C.3       2 CLR427      0.0000
     50 C22        85.0850  102.6940   96.8140 C.3       2 CLR427      0.0000
     51 C23        85.7480  102.1170   98.0640 C.3       2 CLR427      0.0000
     52 C24        87.2260  102.5120   98.0950 C.3       2 CLR427      0.0000
     53 C25        87.8600  102.0490   99.4090 C.3       2 CLR427      0.0000
     54 C26        87.1160  102.6580  100.5990 C.3       2 CLR427      0.0000
     55 C27        87.8440  100.5230   99.5020 C.3       2 CLR427      0.0000
     56 O1         75.1210   99.8680   89.9230 O.3       2 CLR427      0.0000
     57 C1         87.8180   99.3610  137.0020 C.3       3 CLR428      0.0000
     58 C2         87.2800  100.3780  138.0130 C.3       3 CLR428      0.0000
     59 C3         87.9750  100.1640  139.3540 C.3       3 CLR428      0.0000
     60 C4         89.4430  100.5590  139.1860 C.3       3 CLR428      0.0000
     61 C5         90.0440   99.6740  138.1060 C.2       3 CLR428      0.0000
     62 C6         91.1670   99.0720  138.3720 C.2       3 CLR428      0.0000
     63 C7         91.8900   98.1650  137.4170 C.3       3 CLR428      0.0000
     64 C8         91.3880   98.3130  135.9740 C.3       3 CLR428      0.0000
     65 C9         89.8550   98.3670  135.9700 C.3       3 CLR428      0.0000
     66 C10        89.3290   99.5350  136.7950 C.3       3 CLR428      0.0000
     67 C11        89.2940   98.3690  134.5470 C.3       3 CLR428      0.0000
     68 C12        89.7840   97.1390  133.7680 C.3       3 CLR428      0.0000
     69 C13        91.3180   97.0490  133.7490 C.3       3 CLR428      0.0000
     70 C14        91.7960   97.0440  135.2380 C.3       3 CLR428      0.0000
     71 C15        93.3000   96.7920  135.1030 C.3       3 CLR428      0.0000
     72 C16        93.3090   95.6500  134.0550 C.3       3 CLR428      0.0000
     73 C17        91.9800   95.7500  133.2430 C.3       3 CLR428      0.0000
     74 C18        91.9020   98.2770  133.0350 C.3       3 CLR428      0.0000
     75 C19        89.5690  100.8350  136.0180 C.3       3 CLR428      0.0000
     76 C20        92.2600   95.6680  131.7210 C.3       3 CLR428      0.0000
     77 C21        91.0120   95.2660  130.9250 C.3       3 CLR428      0.0000
     78 C22        93.3100   94.5910  131.4170 C.3       3 CLR428      0.0000
     79 C23        93.7260   94.6290  129.9450 C.3       3 CLR428      0.0000
     80 C24        94.5860   93.4020  129.6320 C.3       3 CLR428      0.0000
     81 C25        93.7460   92.1260  129.7470 C.3       3 CLR428      0.0000
     82 C26        92.6410   92.1280  128.6890 C.3       3 CLR428      0.0000
     83 C27        94.6400   90.9010  129.5440 C.3       3 CLR428      0.0000
     84 O1         87.3620  100.9830  140.3530 O.3       3 CLR428      0.0000
     85 C1         80.4000   80.1680  112.8060 C.3       4 CLR429      0.0000
     86 C2         80.7880   78.7130  112.5240 C.3       4 CLR429      0.0000
     87 C3         79.6070   77.7980  112.8400 C.3       4 CLR429      0.0000
     88 C4         78.4930   78.1040  111.8380 C.3       4 CLR429      0.0000
     89 C5         78.1290   79.5750  111.9600 C.2       4 CLR429      0.0000
     90 C6         76.8690   79.8770  112.0900 C.2       4 CLR429      0.0000
     91 C7         76.3530   81.2810  112.2210 C.3       4 CLR429      0.0000
     92 C8         77.3820   82.3010  111.7180 C.3       4 CLR429      0.0000
     93 C9         78.7450   81.9840  112.3520 C.3       4 CLR429      0.0000
     94 C10        79.2230   80.6010  111.9230 C.3       4 CLR429      0.0000
     95 C11        79.7870   83.0700  112.0560 C.3       4 CLR429      0.0000
     96 C12        79.2830   84.4810  112.4060 C.3       4 CLR429      0.0000
     97 C13        77.9360   84.7770  111.7360 C.3       4 CLR429      0.0000
     98 C14        76.9310   83.6760  112.1930 C.3       4 CLR429      0.0000
     99 C15        75.6020   84.1900  111.6220 C.3       4 CLR429      0.0000
    100 C16        75.6850   85.7120  111.9210 C.3       4 CLR429      0.0000
    101 C17        77.1860   86.0450  112.1740 C.3       4 CLR429      0.0000
    102 C18        78.0800   84.7270  110.2050 C.3       4 CLR429      0.0000
    103 C19        79.7040   80.6800  110.4670 C.3       4 CLR429      0.0000
    104 C20        77.6940   87.3240  111.4580 C.3       4 CLR429      0.0000
    105 C21        78.6110   88.1150  112.4070 C.3       4 CLR429      0.0000
    106 C22        76.5660   88.2060  110.8710 C.3       4 CLR429      0.0000
    107 C23        76.1500   89.4000  111.7410 C.3       4 CLR429      0.0000
    108 C24        75.1000   90.2280  110.9950 C.3       4 CLR429      0.0000
    109 C25        74.7320   91.4730  111.8060 C.3       4 CLR429      0.0000
    110 C26        75.9660   92.3570  111.9950 C.3       4 CLR429      0.0000
    111 C27        73.6570   92.2630  111.0570 C.3       4 CLR429      0.0000
    112 O1         80.0090   76.4320  112.7100 O.3       4 CLR429      0.0000
@<TRIPOS>BOND
     1    1    2 1
     2    1   10 1
     3    2    3 1
     4    3    4 1
     5    3   28 1
     6    4    5 1
     7    5    6 2
     8    5   10 1
     9    6    7 1
    10    7    8 1
    11    8    9 1
    12    8   14 1
    13    9   10 1
    14    9   11 1
    15   10   19 1
    16   11   12 1
    17   12   13 1
    18   13   14 1
    19   13   17 1
    20   13   18 1
    21   14   15 1
    22   15   16 1
    23   16   17 1
    24   17   20 1
    25   20   21 1
    26   20   22 1
    27   22   23 1
    28   23   24 1
    29   24   25 1
    30   25   26 1
    31   25   27 1
    32   29   30 1
    33   29   38 1
    34   30   31 1
    35   31   32 1
    36   31   56 1
    37   32   33 1
    38   33   34 2
    39   33   38 1
    40   34   35 1
    41   35   36 1
    42   36   37 1
    43   36   42 1
    44   37   38 1
    45   37   39 1
    46   38   47 1
    47   39   40 1
    48   40   41 1
    49   41   42 1
    50   41   45 1
    51   41   46 1
    52   42   43 1
    53   43   44 1
    54   44   45 1
    55   45   48 1
    56   48   49 1
    57   48   50 1
    58   50   51 1
    59   51   52 1
    60   52   53 1
    61   53   54 1
    62   53   55 1
    63   57   58 1
    64   57   66 1
    65   58   59 1
    66   59   60 1
    67   59   84 1
    68   60   61 1
    69   61   62 2
    70   61   66 1
    71   62   63 1
    72   63   64 1
    73   64   65 1
    74   64   70 1
    75   65   66 1
    76   65   67 1
    77   66   75 1
    78   67   68 1
    79   68   69 1
    80   69   70 1
    81   69   73 1
    82   69   74 1
    83   70   71 1
    84   71   72 1
    85   72   73 1
    86   73   76 1
    87   76   77 1
    88   76   78 1
    89   78   79 1
    90   79   80 1
    91   80   81 1
    92   81   82 1
    93   81   83 1
    94   85   86 1
    95   85   94 1
    96   86   87 1
    97   87   88 1
    98   87  112 1
    99   88   89 1
   100   89   90 2
   101   89   94 1
   102   90   91 1
   103   91   92 1
   104   92   93 1
   105   92   98 1
   106   93   94 1
   107   93   95 1
   108   94  103 1
   109   95   96 1
   110   96   97 1
   111   97   98 1
   112   97  101 1
   113   97  102 1
   114   98   99 1
   115   99  100 1
   116  100  101 1
   117  101  104 1
   118  104  105 1
   119  104  106 1
   120  106  107 1
   121  107  108 1
   122  108  109 1
   123  109  110 1
   124  109  111 1
@<TRIPOS>SUBSTRUCTURE
     1 CLR426      1 RESIDUE           4 R     CLR     0 ROOT
     2 CLR427     29 RESIDUE           4 R     CLR     0 ROOT
     3 CLR428     57 RESIDUE           4 R     CLR     0 ROOT
     4 CLR429     85 RESIDUE           4 R     CLR     0 ROOT
