@<TRIPOS>MOLECULE
CLR
168 186 6 0 0
SMALL
NO_CHARGES


@<TRIPOS>ATOM
      1 C1         93.7040  105.8610  109.3970 C.3       1 CLR522      0.0000
      2 C2         93.8800  106.1930  110.8820 C.3       1 CLR522      0.0000
      3 C3         95.2250  105.6580  111.3680 C.3       1 CLR522      0.0000
      4 C4         96.3280  106.4510  110.6650 C.3       1 CLR522      0.0000
      5 C5         96.1560  106.2760  109.1650 C.2       1 CLR522      0.0000
      6 C6         97.2000  105.9230  108.4740 C.2       1 CLR522      0.0000
      7 C7         97.1910  105.7110  106.9880 C.3       1 CLR522      0.0000
      8 C8         95.9850  106.4000  106.3380 C.3       1 CLR522      0.0000
      9 C9         94.7160  106.0210  107.1160 C.3       1 CLR522      0.0000
     10 C10        94.8060  106.5180  108.5550 C.3       1 CLR522      0.0000
     11 C11        93.4470  106.5150  106.4110 C.3       1 CLR522      0.0000
     12 C12        93.3990  106.1080  104.9270 C.3       1 CLR522      0.0000
     13 C13        94.6660  106.5320  104.1700 C.3       1 CLR522      0.0000
     14 C14        95.8590  105.8620  104.9190 C.3       1 CLR522      0.0000
     15 C15        97.0370  106.1490  103.9860 C.3       1 CLR522      0.0000
     16 C16        96.4180  105.8530  102.5960 C.3       1 CLR522      0.0000
     17 C17        94.8740  106.0110  102.7340 C.3       1 CLR522      0.0000
     18 C18        94.8400  108.0580  104.2250 C.3       1 CLR522      0.0000
     19 C19        94.5870  108.0370  108.5630 C.3       1 CLR522      0.0000
     20 C20        94.2900  106.9060  101.6110 C.3       1 CLR522      0.0000
     21 C21        92.8130  106.5840  101.3610 C.3       1 CLR522      0.0000
     22 C22        95.0130  106.7000  100.2720 C.3       1 CLR522      0.0000
     23 C23        94.5610  107.7520   99.2570 C.3       1 CLR522      0.0000
     24 C24        95.1510  107.4160   97.8850 C.3       1 CLR522      0.0000
     25 C25        94.7100  108.4440   96.8380 C.3       1 CLR522      0.0000
     26 C26        93.1850  108.5100   96.7450 C.3       1 CLR522      0.0000
     27 C27        95.2690  109.8230   97.1870 C.3       1 CLR522      0.0000
     28 O1         95.3360  105.8330  112.7820 O.3       1 CLR522      0.0000
     29 C1         93.5820  143.7710   97.6820 C.3       2 CLR523      0.0000
     30 C2         92.5410  143.9100   96.5650 C.3       2 CLR523      0.0000
     31 C3         93.1960  144.4720   95.3040 C.3       2 CLR523      0.0000
     32 C4         94.2100  143.4440   94.7970 C.3       2 CLR523      0.0000
     33 C5         95.2120  143.1670   95.9070 C.2       2 CLR523      0.0000
     34 C6         96.4760  143.2590   95.6150 C.2       2 CLR523      0.0000
     35 C7         97.5840  143.0160   96.5980 C.3       2 CLR523      0.0000
     36 C8         97.0950  142.1800   97.7880 C.3       2 CLR523      0.0000
     37 C9         95.7990  142.8010   98.3310 C.3       2 CLR523      0.0000
     38 C10        94.7010  142.8040   97.2700 C.3       2 CLR523      0.0000
     39 C11        95.3530  142.1250   99.6330 C.3       2 CLR523      0.0000
     40 C12        96.4810  142.0860  100.6780 C.3       2 CLR523      0.0000
     41 C13        97.7610  141.4320  100.1320 C.3       2 CLR523      0.0000
     42 C14        98.1630  142.2630   98.8730 C.3       2 CLR523      0.0000
     43 C15        99.5360  141.6860   98.5180 C.3       2 CLR523      0.0000
     44 C16       100.1980  141.6030   99.9180 C.3       2 CLR523      0.0000
     45 C17        99.0530  141.5190  100.9740 C.3       2 CLR523      0.0000
     46 C18        97.4840  139.9840   99.7020 C.3       2 CLR523      0.0000
     47 C19        94.1080  141.3920   97.1650 C.3       2 CLR523      0.0000
     48 C20        99.3150  140.3650  101.9800 C.3       2 CLR523      0.0000
     49 C21        98.4780  140.5220  103.2600 C.3       2 CLR523      0.0000
     50 C22       100.7960  140.3440  102.4000 C.3       2 CLR523      0.0000
     51 C23       101.0880  139.3280  103.5100 C.3       2 CLR523      0.0000
     52 C24       102.5010  139.5630  104.0530 C.3       2 CLR523      0.0000
     53 C25       102.7580  138.6760  105.2740 C.3       2 CLR523      0.0000
     54 C26       104.1710  138.9250  105.8030 C.3       2 CLR523      0.0000
     55 C27       101.7450  138.9940  106.3770 C.3       2 CLR523      0.0000
     56 O1         92.2010  144.6940   94.3020 O.3       2 CLR523      0.0000
     57 C1        108.7890  140.2320  120.9450 C.3       3 CLR524      0.0000
     58 C2        108.2910  140.1750  122.3920 C.3       3 CLR524      0.0000
     59 C3        106.9630  140.9210  122.5100 C.3       3 CLR524      0.0000
     60 C4        105.9160  140.1760  121.6770 C.3       3 CLR524      0.0000
     61 C5        106.4160  140.0550  120.2440 C.2       3 CLR524      0.0000
     62 C6        105.6100  140.4080  119.2830 C.2       3 CLR524      0.0000
     63 C7        105.9680  140.3420  117.8250 C.3       3 CLR524      0.0000
     64 C8        107.1270  139.3640  117.5910 C.3       3 CLR524      0.0000
     65 C9        108.2670  139.7190  118.5600 C.3       3 CLR524      0.0000
     66 C10       107.8020  139.5360  120.0020 C.3       3 CLR524      0.0000
     67 C11       109.5450  138.9220  118.2640 C.3       3 CLR524      0.0000
     68 C12       109.9410  138.9350  116.7760 C.3       3 CLR524      0.0000
     69 C13       108.7770  138.5250  115.8630 C.3       3 CLR524      0.0000
     70 C14       107.6220  139.5300  116.1580 C.3       3 CLR524      0.0000
     71 C15       106.6180  139.2060  115.0470 C.3       3 CLR524      0.0000
     72 C16       107.5420  139.0300  113.8110 C.3       3 CLR524      0.0000
     73 C17       108.9670  138.6870  114.3430 C.3       3 CLR524      0.0000
     74 C18       108.2920  137.1040  116.2000 C.3       3 CLR524      0.0000
     75 C19       107.7720  138.0350  120.3240 C.3       3 CLR524      0.0000
     76 C20       109.6020  137.4460  113.6560 C.3       3 CLR524      0.0000
     77 C21       111.1320  137.6030  113.5700 C.3       3 CLR524      0.0000
     78 C22       108.9740  137.1050  112.2820 C.3       3 CLR524      0.0000
     79 C23       109.7830  137.5700  111.0640 C.3       3 CLR524      0.0000
     80 C24       109.0920  137.1120  109.7770 C.3       3 CLR524      0.0000
     81 C25       109.9780  137.4170  108.5660 C.3       3 CLR524      0.0000
     82 C26       109.2820  136.9370  107.2920 C.3       3 CLR524      0.0000
     83 C27       110.2390  138.9220  108.4640 C.3       3 CLR524      0.0000
     84 O1        106.5580  140.9520  123.8800 O.3       3 CLR524      0.0000
     85 C1         86.5710  105.5740   85.2820 C.3       4 CLR525      0.0000
     86 C2         85.8090  105.8560   83.9840 C.3       4 CLR525      0.0000
     87 C3         84.6560  106.8130   84.2700 C.3       4 CLR525      0.0000
     88 C4         85.2490  108.1670   84.6620 C.3       4 CLR525      0.0000
     89 C5         86.1540  107.9690   85.8680 C.2       4 CLR525      0.0000
     90 C6         86.0050  108.7780   86.8760 C.2       4 CLR525      0.0000
     91 C7         86.8210  108.7120   88.1360 C.3       4 CLR525      0.0000
     92 C8         88.1170  107.9240   87.9130 C.3       4 CLR525      0.0000
     93 C9         87.7530  106.5970   87.2320 C.3       4 CLR525      0.0000
     94 C10        87.1710  106.8660   85.8500 C.3       4 CLR525      0.0000
     95 C11        88.9330  105.6220   87.1670 C.3       4 CLR525      0.0000
     96 C12        89.5880  105.4140   88.5430 C.3       4 CLR525      0.0000
     97 C13        90.0000  106.7530   89.1620 C.3       4 CLR525      0.0000
     98 C14        88.7240  107.6420   89.2820 C.3       4 CLR525      0.0000
     99 C15        89.2480  108.8620   90.0540 C.3       4 CLR525      0.0000
    100 C16        90.1860  108.2130   91.1090 C.3       4 CLR525      0.0000
    101 C17        90.4650  106.7570   90.6250 C.3       4 CLR525      0.0000
    102 C18        91.0340  107.4500   88.2660 C.3       4 CLR525      0.0000
    103 C19        88.3060  107.3290   84.9280 C.3       4 CLR525      0.0000
    104 C20        91.9250  106.2750   90.8090 C.3       4 CLR525      0.0000
    105 C21        91.8830  104.8470   91.3720 C.3       4 CLR525      0.0000
    106 C22        92.7520  107.1830   91.7410 C.3       4 CLR525      0.0000
    107 C23        94.0760  106.5380   92.1660 C.3       4 CLR525      0.0000
    108 C24        94.8270  107.4740   93.1180 C.3       4 CLR525      0.0000
    109 C25        96.0520  106.7650   93.7050 C.3       4 CLR525      0.0000
    110 C26        95.6150  105.5410   94.5120 C.3       4 CLR525      0.0000
    111 C27        97.0000  106.3280   92.5870 C.3       4 CLR525      0.0000
    112 O1         83.8550  106.9640   83.0950 O.3       4 CLR525      0.0000
    113 C1         81.6140  126.1690   98.4900 C.3       5 CLR526      0.0000
    114 C2         81.2110  126.4920   97.0490 C.3       5 CLR526      0.0000
    115 C3         81.0060  127.9980   96.9070 C.3       5 CLR526      0.0000
    116 C4         82.3600  128.6850   97.0890 C.3       5 CLR526      0.0000
    117 C5         82.9390  128.2930   98.4410 C.2       5 CLR526      0.0000
    118 C6         83.4150  129.2390   99.2000 C.2       5 CLR526      0.0000
    119 C7         84.0170  129.0000  100.5560 C.3       5 CLR526      0.0000
    120 C8         84.4380  127.5330  100.7180 C.3       5 CLR526      0.0000
    121 C9         83.2420  126.6570  100.3230 C.3       5 CLR526      0.0000
    122 C10        82.9440  126.8470   98.8420 C.3       5 CLR526      0.0000
    123 C11        83.4520  125.1810  100.6700 C.3       5 CLR526      0.0000
    124 C12        83.8890  124.9860  102.1300 C.3       5 CLR526      0.0000
    125 C13        85.1410  125.8100  102.4650 C.3       5 CLR526      0.0000
    126 C14        84.7740  127.3020  102.1860 C.3       5 CLR526      0.0000
    127 C15        86.0030  128.0460  102.7190 C.3       5 CLR526      0.0000
    128 C16        86.2730  127.2950  104.0490 C.3       5 CLR526      0.0000
    129 C17        85.5990  125.8930  103.9340 C.3       5 CLR526      0.0000
    130 C18        86.3110  125.3910  101.5600 C.3       5 CLR526      0.0000
    131 C19        84.0690  126.1790   98.0480 C.3       5 CLR526      0.0000
    132 C20        86.5370  124.7480  104.3980 C.3       5 CLR526      0.0000
    133 C21        85.7100  123.5720  104.9370 C.3       5 CLR526      0.0000
    134 C22        87.4980  125.1890  105.5160 C.3       5 CLR526      0.0000
    135 C23        88.3710  124.0180  105.9770 C.3       5 CLR526      0.0000
    136 C24        89.1350  124.3900  107.2500 C.3       5 CLR526      0.0000
    137 C25        89.8200  123.1430  107.8170 C.3       5 CLR526      0.0000
    138 C26        90.5810  123.5120  109.0890 C.3       5 CLR526      0.0000
    139 C27        88.7670  122.0900  108.1720 C.3       5 CLR526      0.0000
    140 O1         80.4930  128.2870   95.6050 O.3       5 CLR526      0.0000
    141 C1        101.9310  103.6030  109.7710 C.3       6 CLR527      0.0000
    142 C2        102.3260  103.7140  111.2510 C.3       6 CLR527      0.0000
    143 C3        103.7290  103.1530  111.4840 C.3       6 CLR527      0.0000
    144 C4        104.7250  104.0070  110.6960 C.3       6 CLR527      0.0000
    145 C5        104.3050  104.0280  109.2340 C.2       6 CLR527      0.0000
    146 C6        105.2040  103.7080  108.3490 C.2       6 CLR527      0.0000
    147 C7        104.9410  103.6830  106.8730 C.3       6 CLR527      0.0000
    148 C8        103.7730  104.6210  106.5490 C.3       6 CLR527      0.0000
    149 C9        102.5610  104.2210  107.4090 C.3       6 CLR527      0.0000
    150 C10       102.8930  104.4120  108.8910 C.3       6 CLR527      0.0000
    151 C11       101.2930  104.9800  106.9870 C.3       6 CLR527      0.0000
    152 C12       101.0690  105.0320  105.4640 C.3       6 CLR527      0.0000
    153 C13       102.3110  105.4840  104.6800 C.3       6 CLR527      0.0000
    154 C14       103.4270  104.4690  105.0720 C.3       6 CLR527      0.0000
    155 C15       104.5390  104.8010  104.0720 C.3       6 CLR527      0.0000
    156 C16       103.7350  104.9690  102.7560 C.3       6 CLR527      0.0000
    157 C17       102.2730  105.3470  103.1430 C.3       6 CLR527      0.0000
    158 C18       102.7800  106.8870  105.1140 C.3       6 CLR527      0.0000
    159 C19       102.7310  105.8990  109.2440 C.3       6 CLR527      0.0000
    160 C20       101.8180  106.5940  102.3370 C.3       6 CLR527      0.0000
    161 C21       100.3090  106.8980  102.4300 C.3       6 CLR527      0.0000
    162 C22       102.1680  106.4500  100.8420 C.3       6 CLR527      0.0000
    163 C23       101.2000  105.5200  100.0990 C.3       6 CLR527      0.0000
    164 C24       101.2690  105.7710   98.5920 C.3       6 CLR527      0.0000
    165 C25        99.8400  105.9270   98.0620 C.3       6 CLR527      0.0000
    166 C26        99.2060  107.1980   98.6350 C.3       6 CLR527      0.0000
    167 C27        99.8440  106.0010   96.5350 C.3       6 CLR527      0.0000
    168 O1        104.0500  103.2280  112.8740 O.3       6 CLR527      0.0000
@<TRIPOS>BOND
     1    1    2 1
     2    1   10 1
     3    2    3 1
     4    3    4 1
     5    3   28 1
     6    4    5 1
     7    5    6 2
     8    5   10 1
     9    6    7 1
    10    7    8 1
    11    8    9 1
    12    8   14 1
    13    9   10 1
    14    9   11 1
    15   10   19 1
    16   11   12 1
    17   12   13 1
    18   13   14 1
    19   13   17 1
    20   13   18 1
    21   14   15 1
    22   15   16 1
    23   16   17 1
    24   17   20 1
    25   20   21 1
    26   20   22 1
    27   22   23 1
    28   23   24 1
    29   24   25 1
    30   25   26 1
    31   25   27 1
    32   29   30 1
    33   29   38 1
    34   30   31 1
    35   31   32 1
    36   31   56 1
    37   32   33 1
    38   33   34 2
    39   33   38 1
    40   34   35 1
    41   35   36 1
    42   36   37 1
    43   36   42 1
    44   37   38 1
    45   37   39 1
    46   38   47 1
    47   39   40 1
    48   40   41 1
    49   41   42 1
    50   41   45 1
    51   41   46 1
    52   42   43 1
    53   43   44 1
    54   44   45 1
    55   45   48 1
    56   48   49 1
    57   48   50 1
    58   50   51 1
    59   51   52 1
    60   52   53 1
    61   53   54 1
    62   53   55 1
    63   57   58 1
    64   57   66 1
    65   58   59 1
    66   59   60 1
    67   59   84 1
    68   60   61 1
    69   61   62 2
    70   61   66 1
    71   62   63 1
    72   63   64 1
    73   64   65 1
    74   64   70 1
    75   65   66 1
    76   65   67 1
    77   66   75 1
    78   67   68 1
    79   68   69 1
    80   69   70 1
    81   69   73 1
    82   69   74 1
    83   70   71 1
    84   71   72 1
    85   72   73 1
    86   73   76 1
    87   76   77 1
    88   76   78 1
    89   78   79 1
    90   79   80 1
    91   80   81 1
    92   81   82 1
    93   81   83 1
    94   85   86 1
    95   85   94 1
    96   86   87 1
    97   87   88 1
    98   87  112 1
    99   88   89 1
   100   89   90 2
   101   89   94 1
   102   90   91 1
   103   91   92 1
   104   92   93 1
   105   92   98 1
   106   93   94 1
   107   93   95 1
   108   94  103 1
   109   95   96 1
   110   96   97 1
   111   97   98 1
   112   97  101 1
   113   97  102 1
   114   98   99 1
   115   99  100 1
   116  100  101 1
   117  101  104 1
   118  104  105 1
   119  104  106 1
   120  106  107 1
   121  107  108 1
   122  108  109 1
   123  109  110 1
   124  109  111 1
   125  113  114 1
   126  113  122 1
   127  114  115 1
   128  115  116 1
   129  115  140 1
   130  116  117 1
   131  117  118 2
   132  117  122 1
   133  118  119 1
   134  119  120 1
   135  120  121 1
   136  120  126 1
   137  121  122 1
   138  121  123 1
   139  122  131 1
   140  123  124 1
   141  124  125 1
   142  125  126 1
   143  125  129 1
   144  125  130 1
   145  126  127 1
   146  127  128 1
   147  128  129 1
   148  129  132 1
   149  132  133 1
   150  132  134 1
   151  134  135 1
   152  135  136 1
   153  136  137 1
   154  137  138 1
   155  137  139 1
   156  141  142 1
   157  141  150 1
   158  142  143 1
   159  143  144 1
   160  143  168 1
   161  144  145 1
   162  145  146 2
   163  145  150 1
   164  146  147 1
   165  147  148 1
   166  148  149 1
   167  148  154 1
   168  149  150 1
   169  149  151 1
   170  150  159 1
   171  151  152 1
   172  152  153 1
   173  153  154 1
   174  153  157 1
   175  153  158 1
   176  154  155 1
   177  155  156 1
   178  156  157 1
   179  157  160 1
   180  160  161 1
   181  160  162 1
   182  162  163 1
   183  163  164 1
   184  164  165 1
   185  165  166 1
   186  165  167 1
@<TRIPOS>SUBSTRUCTURE
     1 CLR522      1 RESIDUE           4 R     CLR     0 ROOT
     2 CLR523     29 RESIDUE           4 R     CLR     0 ROOT
     3 CLR524     57 RESIDUE           4 R     CLR     0 ROOT
     4 CLR525     85 RESIDUE           4 R     CLR     0 ROOT
     5 CLR526    113 RESIDUE           4 R     CLR     0 ROOT
     6 CLR527    141 RESIDUE           4 R     CLR     0 ROOT
