@<TRIPOS>MOLECULE
CLR
28 31 1 0 0
SMALL
NO_CHARGES


@<TRIPOS>ATOM
      1 C1        104.2060  135.6160  135.5440 C.3       1 CLR658      0.0000
      2 C2        103.3330  136.3120  136.5810 C.3       1 CLR658      0.0000
      3 C3        104.1480  136.7410  137.7970 C.3       1 CLR658      0.0000
      4 C4        105.2350  137.7210  137.3700 C.3       1 CLR658      0.0000
      5 C5        106.0230  137.1220  136.2300 C.2       1 CLR658      0.0000
      6 C6        107.3620  137.0910  136.2760 C.2       1 CLR658      0.0000
      7 C7        108.1980  137.2670  135.0290 C.3       1 CLR658      0.0000
      8 C8        107.4580  136.7370  133.8050 C.3       1 CLR658      0.0000
      9 C9        106.3110  135.8030  134.1890 C.3       1 CLR658      0.0000
     10 C10       105.2980  136.5510  135.0430 C.3       1 CLR658      0.0000
     11 C11       105.6340  135.1380  132.9840 C.3       1 CLR658      0.0000
     12 C12       106.6150  134.5680  131.9580 C.3       1 CLR658      0.0000
     13 C13       107.6200  135.6500  131.6130 C.3       1 CLR658      0.0000
     14 C14       108.3830  135.9800  132.8710 C.3       1 CLR658      0.0000
     15 C15       109.6490  136.6830  132.4050 C.3       1 CLR658      0.0000
     16 C16       109.9280  136.0940  131.0210 C.3       1 CLR658      0.0000
     17 C17       108.6990  135.2840  130.6110 C.3       1 CLR658      0.0000
     18 C18       106.8790  136.8900  131.1260 C.3       1 CLR658      0.0000
     19 C19       104.6850  137.6990  134.2490 C.3       1 CLR658      0.0000
     20 C20       108.2720  135.5790  129.1800 C.3       1 CLR658      0.0000
     21 C21       107.5530  134.3820  128.5680 C.3       1 CLR658      0.0000
     22 C22       109.4650  135.9930  128.3270 C.3       1 CLR658      0.0000
     23 C23       109.9550  134.8300  127.4720 C.3       1 CLR658      0.0000
     24 C24       110.0500  135.2320  126.0050 C.3       1 CLR658      0.0000
     25 C25       111.4100  134.8600  125.4260 C.3       1 CLR658      0.0000
     26 C26       111.6490  133.3570  125.5140 C.3       1 CLR658      0.0000
     27 C27       111.5440  135.3510  123.9890 C.3       1 CLR658      0.0000
     28 O1        103.2850  137.3730  138.7490 O.3       1 CLR658      0.0000
@<TRIPOS>BOND
     1    1    2 1
     2    1   10 1
     3    2    3 1
     4    3    4 1
     5    3   28 1
     6    4    5 1
     7    5    6 2
     8    5   10 1
     9    6    7 1
    10    7    8 1
    11    8    9 1
    12    8   14 1
    13    9   10 1
    14    9   11 1
    15   10   19 1
    16   11   12 1
    17   12   13 1
    18   13   14 1
    19   13   17 1
    20   13   18 1
    21   14   15 1
    22   15   16 1
    23   16   17 1
    24   17   20 1
    25   20   21 1
    26   20   22 1
    27   22   23 1
    28   23   24 1
    29   24   25 1
    30   25   26 1
    31   25   27 1
@<TRIPOS>SUBSTRUCTURE
     1 CLR658      1 RESIDUE           4 R     CLR     0 ROOT
