@<TRIPOS>MOLECULE
CLR
28 31 1 0 0
SMALL
NO_CHARGES


@<TRIPOS>ATOM
      1 C1        107.0710  137.6120  139.7650 C.3       1 CLR659      0.0000
      2 C2        106.3340  138.3340  140.8870 C.3       1 CLR659      0.0000
      3 C3        106.9740  138.0520  142.2420 C.3       1 CLR659      0.0000
      4 C4        108.4170  138.5440  142.2430 C.3       1 CLR659      0.0000
      5 C5        109.1360  137.9650  141.0490 C.2       1 CLR659      0.0000
      6 C6        110.3140  137.3420  141.2060 C.2       1 CLR659      0.0000
      7 C7        111.3980  137.4210  140.1540 C.3       1 CLR659      0.0000
      8 C8        110.7920  137.6300  138.7710 C.3       1 CLR659      0.0000
      9 C9        109.3220  137.2140  138.7260 C.3       1 CLR659      0.0000
     10 C10       108.5170  138.0800  139.6830 C.3       1 CLR659      0.0000
     11 C11       108.7120  137.2430  137.3170 C.3       1 CLR659      0.0000
     12 C12       109.6070  136.6400  136.2330 C.3       1 CLR659      0.0000
     13 C13       110.9850  137.2580  136.3610 C.3       1 CLR659      0.0000
     14 C14       111.5360  136.8520  137.7040 C.3       1 CLR659      0.0000
     15 C15       113.0400  137.0520  137.6040 C.3       1 CLR659      0.0000
     16 C16       113.3620  136.8330  136.1240 C.3       1 CLR659      0.0000
     17 C17       112.0350  136.7950  135.3680 C.3       1 CLR659      0.0000
     18 C18       110.8640  138.7760  136.2980 C.3       1 CLR659      0.0000
     19 C19       108.5720  139.5390  139.2450 C.3       1 CLR659      0.0000
     20 C20       112.0630  137.6750  134.1260 C.3       1 CLR659      0.0000
     21 C21       110.9910  137.2480  133.1300 C.3       1 CLR659      0.0000
     22 C22       113.4430  137.6670  133.4810 C.3       1 CLR659      0.0000
     23 C23       113.3420  137.8830  131.9760 C.3       1 CLR659      0.0000
     24 C24       114.1980  136.8730  131.2210 C.3       1 CLR659      0.0000
     25 C25       114.6790  137.4520  129.8960 C.3       1 CLR659      0.0000
     26 C26       114.7360  136.3760  128.8180 C.3       1 CLR659      0.0000
     27 C27       113.7990  138.6170  129.4590 C.3       1 CLR659      0.0000
     28 O1        106.2380  138.7290  143.2670 O.3       1 CLR659      0.0000
@<TRIPOS>BOND
     1    1    2 1
     2    1   10 1
     3    2    3 1
     4    3    4 1
     5    3   28 1
     6    4    5 1
     7    5    6 2
     8    5   10 1
     9    6    7 1
    10    7    8 1
    11    8    9 1
    12    8   14 1
    13    9   10 1
    14    9   11 1
    15   10   19 1
    16   11   12 1
    17   12   13 1
    18   13   14 1
    19   13   17 1
    20   13   18 1
    21   14   15 1
    22   15   16 1
    23   16   17 1
    24   17   20 1
    25   20   21 1
    26   20   22 1
    27   22   23 1
    28   23   24 1
    29   24   25 1
    30   25   26 1
    31   25   27 1
@<TRIPOS>SUBSTRUCTURE
     1 CLR659      1 RESIDUE           4 R     CLR     0 ROOT
