@<TRIPOS>MOLECULE
CLR
28 31 1 0 0
SMALL
NO_CHARGES


@<TRIPOS>ATOM
      1 C1        106.0260   96.0960  117.1570 C.3       1 CLR452      0.0000
      2 C2        106.1590   96.1070  115.6320 C.3       1 CLR452      0.0000
      3 C3        104.8280   95.8880  114.9590 C.3       1 CLR452      0.0000
      4 C4        103.8450   96.9500  115.4120 C.3       1 CLR452      0.0000
      5 C5        103.7060   96.9970  116.9190 C.2       1 CLR452      0.0000
      6 C6        102.5110   96.9420  117.4880 C.2       1 CLR452      0.0000
      7 C7        102.2450   97.0400  118.9570 C.3       1 CLR452      0.0000
      8 C8        103.4710   97.4630  119.7610 C.3       1 CLR452      0.0000
      9 C9        104.7310   96.7690  119.2090 C.3       1 CLR452      0.0000
     10 C10       105.0020   97.1110  117.7170 C.3       1 CLR452      0.0000
     11 C11       105.9580   97.0050  120.1070 C.3       1 CLR452      0.0000
     12 C12       105.7060   96.6880  121.5860 C.3       1 CLR452      0.0000
     13 C13       104.4950   97.4520  122.1320 C.3       1 CLR452      0.0000
     14 C14       103.3000   97.0920  121.2280 C.3       1 CLR452      0.0000
     15 C15       102.0800   97.6090  121.9870 C.3       1 CLR452      0.0000
     16 C16       102.4560   97.4210  123.4710 C.3       1 CLR452      0.0000
     17 C17       103.9460   96.9870  123.5120 C.3       1 CLR452      0.0000
     18 C18       104.7750   98.9640  122.1560 C.3       1 CLR452      0.0000
     19 C19       105.5450   98.5430  117.5530 C.3       1 CLR452      0.0000
     20 C20       104.6500   97.4430  124.8020 C.3       1 CLR452      0.0000
     21 C21       105.8610   96.5830  125.1530 C.3       1 CLR452      0.0000
     22 C22       103.6530   97.4710  125.9700 C.3       1 CLR452      0.0000
     23 C23       104.2240   97.0960  127.3150 C.3       1 CLR452      0.0000
     24 C24       103.2060   96.4700  128.2370 C.3       1 CLR452      0.0000
     25 C25       102.9980   97.1840  129.5730 C.3       1 CLR452      0.0000
     26 C26       104.3250   97.5880  130.1990 C.3       1 CLR452      0.0000
     27 C27       102.1920   96.3290  130.5390 C.3       1 CLR452      0.0000
     28 O1        104.9880   95.9480  113.5350 O.3       1 CLR452      0.0000
@<TRIPOS>BOND
     1    1    2 1
     2    1   10 1
     3    2    3 1
     4    3    4 1
     5    3   28 1
     6    4    5 1
     7    5    6 2
     8    5   10 1
     9    6    7 1
    10    7    8 1
    11    8    9 1
    12    8   14 1
    13    9   10 1
    14    9   11 1
    15   10   19 1
    16   11   12 1
    17   12   13 1
    18   13   14 1
    19   13   17 1
    20   13   18 1
    21   14   15 1
    22   15   16 1
    23   16   17 1
    24   17   20 1
    25   20   21 1
    26   20   22 1
    27   22   23 1
    28   23   24 1
    29   24   25 1
    30   25   26 1
    31   25   27 1
@<TRIPOS>SUBSTRUCTURE
     1 CLR452      1 RESIDUE           4 R     CLR     0 ROOT
