@<TRIPOS>MOLECULE
CLR
28 31 1 0 0
SMALL
NO_CHARGES


@<TRIPOS>ATOM
      1 C1          9.3100    3.7150   -8.6150 C.3       1 CLR452      0.0000
      2 C2          7.9630    3.0110   -8.7940 C.3       1 CLR452      0.0000
      3 C3          8.1070    1.5120   -8.7180 C.3       1 CLR452      0.0000
      4 C4          8.7360    1.1260   -7.3940 C.3       1 CLR452      0.0000
      5 C5         10.0570    1.8260   -7.1590 C.2       1 CLR452      0.0000
      6 C6         11.1390    1.1320   -6.8340 C.2       1 CLR452      0.0000
      7 C7         12.4820    1.7160   -6.5320 C.3       1 CLR452      0.0000
      8 C8         12.4530    3.2320   -6.3650 C.3       1 CLR452      0.0000
      9 C9         11.5200    3.8620   -7.4170 C.3       1 CLR452      0.0000
     10 C10        10.0570    3.3440   -7.3130 C.3       1 CLR452      0.0000
     11 C11        11.6090    5.3970   -7.4200 C.3       1 CLR452      0.0000
     12 C12        13.0450    5.9300   -7.5020 C.3       1 CLR452      0.0000
     13 C13        13.9300    5.3480   -6.3950 C.3       1 CLR452      0.0000
     14 C14        13.8500    3.8150   -6.5250 C.3       1 CLR452      0.0000
     15 C15        14.9770    3.2980   -5.6350 C.3       1 CLR452      0.0000
     16 C16        16.0760    4.3710   -5.7620 C.3       1 CLR452      0.0000
     17 C17        15.4650    5.5610   -6.5500 C.3       1 CLR452      0.0000
     18 C18        13.4650    5.8420   -5.0150 C.3       1 CLR452      0.0000
     19 C19         9.3260    3.9520   -6.1020 C.3       1 CLR452      0.0000
     20 C20        16.0880    6.9080   -6.1440 C.3       1 CLR452      0.0000
     21 C21        15.5100    8.0880   -6.9200 C.3       1 CLR452      0.0000
     22 C22        17.6150    6.8550   -6.3010 C.3       1 CLR452      0.0000
     23 C23        18.3860    6.5810   -5.0330 C.3       1 CLR452      0.0000
     24 C24        19.8780    6.7270   -5.2030 C.3       1 CLR452      0.0000
     25 C25        20.4640    8.0700   -4.7640 C.3       1 CLR452      0.0000
     26 C26        20.7400    8.9710   -5.9580 C.3       1 CLR452      0.0000
     27 C27        21.7260    7.8790   -3.9360 C.3       1 CLR452      0.0000
     28 O1          6.8200    0.8930   -8.8460 O.3       1 CLR452      0.0000
@<TRIPOS>BOND
     1    1    2 1
     2    1   10 1
     3    2    3 1
     4    3    4 1
     5    3   28 1
     6    4    5 1
     7    5    6 2
     8    5   10 1
     9    6    7 1
    10    7    8 1
    11    8    9 1
    12    8   14 1
    13    9   10 1
    14    9   11 1
    15   10   19 1
    16   11   12 1
    17   12   13 1
    18   13   14 1
    19   13   17 1
    20   13   18 1
    21   14   15 1
    22   15   16 1
    23   16   17 1
    24   17   20 1
    25   20   21 1
    26   20   22 1
    27   22   23 1
    28   23   24 1
    29   24   25 1
    30   25   26 1
    31   25   27 1
@<TRIPOS>SUBSTRUCTURE
     1 CLR452      1 RESIDUE           4 R     CLR     0 ROOT
