@<TRIPOS>MOLECULE
CLR
28 31 1 0 0
SMALL
NO_CHARGES


@<TRIPOS>ATOM
      1 C1         -9.1470    6.7170   -3.1970 C.3       1 CLR451      0.0000
      2 C2         -9.4430    6.9770   -1.7180 C.3       1 CLR451      0.0000
      3 C3         -8.3270    7.7440   -1.0550 C.3       1 CLR451      0.0000
      4 C4         -8.1000    9.0510   -1.7890 C.3       1 CLR451      0.0000
      5 C5         -7.8340    8.8440   -3.2650 C.2       1 CLR451      0.0000
      6 C6         -6.7730    9.3880   -3.8410 C.2       1 CLR451      0.0000
      7 C7         -6.4330    9.2930   -5.2950 C.3       1 CLR451      0.0000
      8 C8         -7.5690    8.7230   -6.1400 C.3       1 CLR451      0.0000
      9 C9         -8.2510    7.5610   -5.3940 C.3       1 CLR451      0.0000
     10 C10        -8.8470    7.9900   -4.0230 C.3       1 CLR451      0.0000
     11 C11        -9.2700    6.8280   -6.2820 C.3       1 CLR451      0.0000
     12 C12        -8.7050    6.4050   -7.6440 C.3       1 CLR451      0.0000
     13 C13        -8.0990    7.5920   -8.4000 C.3       1 CLR451      0.0000
     14 C14        -7.0370    8.2140   -7.4730 C.3       1 CLR451      0.0000
     15 C15        -6.2560    9.1660   -8.3740 C.3       1 CLR451      0.0000
     16 C16        -6.2640    8.4690   -9.7490 C.3       1 CLR451      0.0000
     17 C17        -7.2180    7.2490   -9.6370 C.3       1 CLR451      0.0000
     18 C18        -9.1930    8.5980   -8.7930 C.3       1 CLR451      0.0000
     19 C19       -10.1370    8.8130   -4.1970 C.3       1 CLR451      0.0000
     20 C20        -7.8910    6.9110  -10.9790 C.3       1 CLR451      0.0000
     21 C21        -8.3990    5.4730  -11.0420 C.3       1 CLR451      0.0000
     22 C22        -6.9270    7.1930  -12.1410 C.3       1 CLR451      0.0000
     23 C23        -7.5840    7.4690  -13.4720 C.3       1 CLR451      0.0000
     24 C24        -7.1540    6.5090  -14.5540 C.3       1 CLR451      0.0000
     25 C25        -7.5070    6.9230  -15.9830 C.3       1 CLR451      0.0000
     26 C26        -8.9460    7.4080  -16.0800 C.3       1 CLR451      0.0000
     27 C27        -6.5510    7.9850  -16.5050 C.3       1 CLR451      0.0000
     28 O1         -8.6630    8.0040    0.3140 O.3       1 CLR451      0.0000
@<TRIPOS>BOND
     1    1    2 1
     2    1   10 1
     3    2    3 1
     4    3    4 1
     5    3   28 1
     6    4    5 1
     7    5    6 2
     8    5   10 1
     9    6    7 1
    10    7    8 1
    11    8    9 1
    12    8   14 1
    13    9   10 1
    14    9   11 1
    15   10   19 1
    16   11   12 1
    17   12   13 1
    18   13   14 1
    19   13   17 1
    20   13   18 1
    21   14   15 1
    22   15   16 1
    23   16   17 1
    24   17   20 1
    25   20   21 1
    26   20   22 1
    27   22   23 1
    28   23   24 1
    29   24   25 1
    30   25   26 1
    31   25   27 1
@<TRIPOS>SUBSTRUCTURE
     1 CLR451      1 RESIDUE           4 R     CLR     0 ROOT
