@<TRIPOS>MOLECULE
CLR
28 31 1 0 0
SMALL
NO_CHARGES


@<TRIPOS>ATOM
      1 C1        106.3650  106.7580  110.5280 C.3       1 CLR511      0.0000
      2 C2        106.6590  107.2100  111.9620 C.3       1 CLR511      0.0000
      3 C3        108.1230  107.6370  112.0880 C.3       1 CLR511      0.0000
      4 C4        108.3760  108.8460  111.1850 C.3       1 CLR511      0.0000
      5 C5        107.9480  108.4940  109.7700 C.2       1 CLR511      0.0000
      6 C6        108.7960  108.6960  108.8070 C.2       1 CLR511      0.0000
      7 C7        108.4840  108.4220  107.3650 C.3       1 CLR511      0.0000
      8 C8        106.9680  108.4720  107.1480 C.3       1 CLR511      0.0000
      9 C9        106.2940  107.5040  108.1290 C.3       1 CLR511      0.0000
     10 C10       106.5720  107.9320  109.5650 C.3       1 CLR511      0.0000
     11 C11       104.7890  107.3810  107.8740 C.3       1 CLR511      0.0000
     12 C12       104.4590  107.0670  106.4040 C.3       1 CLR511      0.0000
     13 C13       105.1250  108.1020  105.4930 C.3       1 CLR511      0.0000
     14 C14       106.6580  108.0020  105.7390 C.3       1 CLR511      0.0000
     15 C15       107.2280  108.8650  104.6100 C.3       1 CLR511      0.0000
     16 C16       106.3440  108.4690  103.3980 C.3       1 CLR511      0.0000
     17 C17       105.0110  107.9230  103.9750 C.3       1 CLR511      0.0000
     18 C18       104.6760  109.5010  105.9060 C.3       1 CLR511      0.0000
     19 C19       105.5590  109.0210  109.9210 C.3       1 CLR511      0.0000
     20 C20       103.8260  108.6860  103.3670 C.3       1 CLR511      0.0000
     21 C21       102.5460  107.8550  103.4800 C.3       1 CLR511      0.0000
     22 C22       104.1040  108.9790  101.8870 C.3       1 CLR511      0.0000
     23 C23       102.8270  109.4280  101.1730 C.3       1 CLR511      0.0000
     24 C24       103.1520  109.7710   99.7170 C.3       1 CLR511      0.0000
     25 C25       102.3010  108.9290   98.7640 C.3       1 CLR511      0.0000
     26 C26       102.4070  109.4970   97.3480 C.3       1 CLR511      0.0000
     27 C27       102.8130  107.4860   98.7530 C.3       1 CLR511      0.0000
     28 O1        108.4020  107.9900  113.4450 O.3       1 CLR511      0.0000
@<TRIPOS>BOND
     1    1    2 1
     2    1   10 1
     3    2    3 1
     4    3    4 1
     5    3   28 1
     6    4    5 1
     7    5    6 2
     8    5   10 1
     9    6    7 1
    10    7    8 1
    11    8    9 1
    12    8   14 1
    13    9   10 1
    14    9   11 1
    15   10   19 1
    16   11   12 1
    17   12   13 1
    18   13   14 1
    19   13   17 1
    20   13   18 1
    21   14   15 1
    22   15   16 1
    23   16   17 1
    24   17   20 1
    25   20   21 1
    26   20   22 1
    27   22   23 1
    28   23   24 1
    29   24   25 1
    30   25   26 1
    31   25   27 1
@<TRIPOS>SUBSTRUCTURE
     1 CLR511      1 RESIDUE           4 R     CLR     0 ROOT
