@<TRIPOS>MOLECULE
CLR
56 62 2 0 0
SMALL
NO_CHARGES


@<TRIPOS>ATOM
      1 C1        100.1270   99.7570  107.4430 C.3       1 CLR634      0.0000
      2 C2         99.5260   98.4360  106.9850 C.3       1 CLR634      0.0000
      3 C3        100.6520   97.5320  106.4730 C.3       1 CLR634      0.0000
      4 C4        101.6090   97.2400  107.6350 C.3       1 CLR634      0.0000
      5 C5        102.1210   98.5220  108.1970 C.2       1 CLR634      0.0000
      6 C6        103.4270   98.7090  108.2530 C.2       1 CLR634      0.0000
      7 C7        104.0380   99.9430  108.7920 C.3       1 CLR634      0.0000
      8 C8        103.0550  100.6020  109.7480 C.3       1 CLR634      0.0000
      9 C9        101.7150  100.8630  109.0430 C.3       1 CLR634      0.0000
     10 C10       101.0780   99.5190  108.6240 C.3       1 CLR634      0.0000
     11 C11       100.7380  101.6570  109.9210 C.3       1 CLR634      0.0000
     12 C12       101.3610  102.9180  110.5010 C.3       1 CLR634      0.0000
     13 C13       102.6270  102.5220  111.2540 C.3       1 CLR634      0.0000
     14 C14       103.6050  101.9300  110.2270 C.3       1 CLR634      0.0000
     15 C15       104.9210  101.9000  110.9930 C.3       1 CLR634      0.0000
     16 C16       104.9080  103.2340  111.7510 C.3       1 CLR634      0.0000
     17 C17       103.4330  103.6840  111.8570 C.3       1 CLR634      0.0000
     18 C18       102.3210  101.4790  112.3350 C.3       1 CLR634      0.0000
     19 C19       100.2980   98.9190  109.7960 C.3       1 CLR634      0.0000
     20 C20       103.0300  103.9730  113.3020 C.3       1 CLR634      0.0000
     21 C21       101.7180  104.7490  113.3380 C.3       1 CLR634      0.0000
     22 C22       104.1260  104.7520  114.0160 C.3       1 CLR634      0.0000
     23 C23       103.8890  104.6750  115.5160 C.3       1 CLR634      0.0000
     24 C24       104.9620  105.4540  116.2550 C.3       1 CLR634      0.0000
     25 C25       104.7110  105.3810  117.7610 C.3       1 CLR634      0.0000
     26 C26       103.3860  106.0530  118.0870 C.3       1 CLR634      0.0000
     27 C27       104.6940  103.9270  118.2160 C.3       1 CLR634      0.0000
     28 O1        100.0620   96.3540  106.0240 O.3       1 CLR634      0.0000
     29 C1         95.3260  103.4640  111.4090 C.3       2 CLR635      0.0000
     30 C2         94.7840  102.1830  110.7920 C.3       2 CLR635      0.0000
     31 C3         95.9620  101.3080  110.3550 C.3       2 CLR635      0.0000
     32 C4         96.7720  100.9260  111.6000 C.3       2 CLR635      0.0000
     33 C5         97.2140  102.1600  112.3090 C.2       2 CLR635      0.0000
     34 C6         98.5020  102.3200  112.5550 C.2       2 CLR635      0.0000
     35 C7         99.0440  103.5040  113.2550 C.3       2 CLR635      0.0000
     36 C8         97.9480  104.1150  114.1140 C.3       2 CLR635      0.0000
     37 C9         96.7150  104.4410  113.2560 C.3       2 CLR635      0.0000
     38 C10        96.1290  103.1360  112.6760 C.3       2 CLR635      0.0000
     39 C11        95.6360  105.1980  114.0420 C.3       2 CLR635      0.0000
     40 C12        96.1880  106.4070  114.7810 C.3       2 CLR635      0.0000
     41 C13        97.3330  105.9380  115.6700 C.3       2 CLR635      0.0000
     42 C14        98.4380  105.4010  114.7470 C.3       2 CLR635      0.0000
     43 C15        99.6380  105.3020  115.6780 C.3       2 CLR635      0.0000
     44 C16        99.5350  106.5900  116.5030 C.3       2 CLR635      0.0000
     45 C17        98.0560  107.0400  116.4610 C.3       2 CLR635      0.0000
     46 C18        96.8710  104.8270  116.6190 C.3       2 CLR635      0.0000
     47 C19        95.2140  102.4670  113.7040 C.3       2 CLR635      0.0000
     48 C20        97.4760  107.2080  117.8640 C.3       2 CLR635      0.0000
     49 C21        96.3440  108.2300  117.8480 C.3       2 CLR635      0.0000
     50 C22        98.5610  107.6330  118.8430 C.3       2 CLR635      0.0000
     51 C23        99.1440  108.9590  118.3830 C.3       2 CLR635      0.0000
     52 C24       100.3460  109.3240  119.2350 C.3       2 CLR635      0.0000
     53 C25       100.9400  110.6460  118.7530 C.3       2 CLR635      0.0000
     54 C26        99.9520  111.7720  119.0190 C.3       2 CLR635      0.0000
     55 C27       102.2590  110.9170  119.4660 C.3       2 CLR635      0.0000
     56 O1         95.4290  100.1700  109.7560 O.3       2 CLR635      0.0000
@<TRIPOS>BOND
     1    1    2 1
     2    1   10 1
     3    2    3 1
     4    3    4 1
     5    3   28 1
     6    4    5 1
     7    5    6 2
     8    5   10 1
     9    6    7 1
    10    7    8 1
    11    8    9 1
    12    8   14 1
    13    9   10 1
    14    9   11 1
    15   10   19 1
    16   11   12 1
    17   12   13 1
    18   13   14 1
    19   13   17 1
    20   13   18 1
    21   14   15 1
    22   15   16 1
    23   16   17 1
    24   17   20 1
    25   20   21 1
    26   20   22 1
    27   22   23 1
    28   23   24 1
    29   24   25 1
    30   25   26 1
    31   25   27 1
    32   29   30 1
    33   29   38 1
    34   30   31 1
    35   31   32 1
    36   31   56 1
    37   32   33 1
    38   33   34 2
    39   33   38 1
    40   34   35 1
    41   35   36 1
    42   36   37 1
    43   36   42 1
    44   37   38 1
    45   37   39 1
    46   38   47 1
    47   39   40 1
    48   40   41 1
    49   41   42 1
    50   41   45 1
    51   41   46 1
    52   42   43 1
    53   43   44 1
    54   44   45 1
    55   45   48 1
    56   48   49 1
    57   48   50 1
    58   50   51 1
    59   51   52 1
    60   52   53 1
    61   53   54 1
    62   53   55 1
@<TRIPOS>SUBSTRUCTURE
     1 CLR634      1 RESIDUE           4 R     CLR     0 ROOT
     2 CLR635     29 RESIDUE           4 R     CLR     0 ROOT
