@<TRIPOS>MOLECULE
CLR
280 310 10 0 0
SMALL
NO_CHARGES


@<TRIPOS>ATOM
      1 C1         83.8090  117.0800  114.3930 C.3       1 CLR521      0.0000
      2 C2         84.1860  117.9190  115.6000 C.3       1 CLR521      0.0000
      3 C3         85.1000  117.1640  116.6220 C.2       1 CLR521      0.0000
      4 C4         86.2980  116.5260  115.8150 C.3       1 CLR521      0.0000
      5 C5         85.8600  115.7820  114.6310 C.3       1 CLR521      0.0000
      6 C6         86.4590  114.4580  114.4210 C.3       1 CLR521      0.0000
      7 C7         86.0830  113.6140  113.2800 C.3       1 CLR521      0.0000
      8 C8         85.4890  114.4250  112.1360 C.3       1 CLR521      0.0000
      9 C9         84.3630  115.3520  112.6270 C.3       1 CLR521      0.0000
     10 C10        84.9730  116.4250  113.6190 C.3       1 CLR521      0.0000
     11 C11        83.4980  115.9480  111.4800 C.3       1 CLR521      0.0000
     12 C12        83.2250  115.0790  110.2380 C.3       1 CLR521      0.0000
     13 C13        84.4430  114.2990  109.7750 C.3       1 CLR521      0.0000
     14 C14        84.9540  113.5130  111.0170 C.3       1 CLR521      0.0000
     15 C15        85.9200  112.4800  110.4350 C.3       1 CLR521      0.0000
     16 C16        85.4920  112.2940  108.9700 C.3       1 CLR521      0.0000
     17 C17        84.2180  113.1340  108.7430 C.3       1 CLR521      0.0000
     18 C18        85.4810  115.3130  109.2440 C.3       1 CLR521      0.0000
     19 C19        85.7450  117.5160  112.8430 C.3       1 CLR521      0.0000
     20 C20        83.9210  113.4970  107.2390 C.3       1 CLR521      0.0000
     21 C21        82.4080  113.5510  107.0190 C.3       1 CLR521      0.0000
     22 C22        84.5540  112.5260  106.1990 C.3       1 CLR521      0.0000
     23 C23        83.9560  112.5840  104.7720 C.3       1 CLR521      0.0000
     24 C24        84.8050  111.8970  103.6740 C.3       1 CLR521      0.0000
     25 C25        85.3140  110.4890  104.0880 C.3       1 CLR521      0.0000
     26 C26        86.1340  109.8140  102.9870 C.3       1 CLR521      0.0000
     27 C27        84.1780  109.5500  104.5070 C.3       1 CLR521      0.0000
     28 O1         85.4940  117.9200  117.6030 O.2       1 CLR521      0.0000
     29 C1         83.5400  115.9560   86.8260 C.3       2 CLR522      0.0000
     30 C2         83.4560  116.0610   85.3150 C.3       2 CLR522      0.0000
     31 C3         83.9830  117.4240   84.7590 C.3       2 CLR522      0.0000
     32 C4         85.4080  117.6730   85.3870 C.3       2 CLR522      0.0000
     33 C5         85.4250  117.5170   86.8450 C.3       2 CLR522      0.0000
     34 C6         86.2290  118.4800   87.6020 C.3       2 CLR522      0.0000
     35 C7         86.2320  118.4930   89.0730 C.3       2 CLR522      0.0000
     36 C8         85.9010  117.1270   89.6750 C.3       2 CLR522      0.0000
     37 C9         84.6650  116.4830   89.0250 C.3       2 CLR522      0.0000
     38 C10        84.9070  116.2720   87.4760 C.3       2 CLR522      0.0000
     39 C11        84.1840  115.2120   89.7690 C.3       2 CLR522      0.0000
     40 C12        84.2650  115.1810   91.3050 C.3       2 CLR522      0.0000
     41 C13        85.5240  115.8280   91.8730 C.3       2 CLR522      0.0000
     42 C14        85.6520  117.2220   91.1910 C.3       2 CLR522      0.0000
     43 C15        86.6930  117.9540   92.0320 C.3       2 CLR522      0.0000
     44 C16        86.5990  117.3250   93.4330 C.3       2 CLR522      0.0000
     45 C17        85.5250  116.2170   93.3970 C.3       2 CLR522      0.0000
     46 C18        86.7200  114.9020   91.5560 C.3       2 CLR522      0.0000
     47 C19        85.8770  115.0950   87.2260 C.3       2 CLR522      0.0000
     48 C20        85.7580  115.0850   94.4570 C.3       2 CLR522      0.0000
     49 C21        84.7830  113.9270   94.2500 C.3       2 CLR522      0.0000
     50 C22        85.6330  115.5680   95.9360 C.3       2 CLR522      0.0000
     51 C23        86.2880  114.6490   96.9940 C.3       2 CLR522      0.0000
     52 C24        86.6590  115.3500   98.3240 C.3       2 CLR522      0.0000
     53 C25        86.8860  114.3730   99.5160 C.3       2 CLR522      0.0000
     54 C26        87.6390  115.0280  100.6750 C.3       2 CLR522      0.0000
     55 C27        85.5820  113.7650  100.0560 C.3       2 CLR522      0.0000
     56 O1         83.9820  117.4760   83.4600 O.3       2 CLR522      0.0000
     57 C1        102.6250   86.8080  101.2780 C.3       3 CLR523      0.0000
     58 C2        102.8730   85.9650  100.0400 C.3       3 CLR523      0.0000
     59 C3        101.6350   85.1140   99.6060 C.2       3 CLR523      0.0000
     60 C4        100.4000   86.0890   99.5300 C.3       3 CLR523      0.0000
     61 C5        100.2340   86.8920  100.7430 C.3       3 CLR523      0.0000
     62 C6         98.8610   87.0770  101.2230 C.3       3 CLR523      0.0000
     63 C7         98.5630   87.8400  102.4440 C.3       3 CLR523      0.0000
     64 C8         99.6860   88.7940  102.8410 C.3       3 CLR523      0.0000
     65 C9        101.0710   88.1390  102.7670 C.3       3 CLR523      0.0000
     66 C10       101.3630   87.7030  101.2770 C.3       3 CLR523      0.0000
     67 C11       102.1920   88.9940  103.4210 C.3       3 CLR523      0.0000
     68 C12       101.8570   89.8420  104.6680 C.3       3 CLR523      0.0000
     69 C13       100.4660   90.4670  104.6460 C.3       3 CLR523      0.0000
     70 C14        99.4780   89.3280  104.2650 C.3       3 CLR523      0.0000
     71 C15        98.1000   89.8940  104.5940 C.3       3 CLR523      0.0000
     72 C16        98.3400   90.9370  105.6960 C.3       3 CLR523      0.0000
     73 C17        99.8480   90.9570  106.0150 C.3       3 CLR523      0.0000
     74 C18       100.4870   91.6100  103.6060 C.3       3 CLR523      0.0000
     75 C19       101.6030   88.9400  100.3830 C.3       3 CLR523      0.0000
     76 C20       100.3320   92.3110  106.6510 C.3       3 CLR523      0.0000
     77 C21       101.6780   92.1160  107.3540 C.3       3 CLR523      0.0000
     78 C22        99.3140   92.9270  107.6610 C.3       3 CLR523      0.0000
     79 C23        99.8820   93.9880  108.6360 C.3       3 CLR523      0.0000
     80 C24        98.8180   94.8300  109.3870 C.3       3 CLR523      0.0000
     81 C25        99.3980   95.6780  110.5560 C.3       3 CLR523      0.0000
     82 C26        99.8430   94.8270  111.7500 C.3       3 CLR523      0.0000
     83 C27       100.5650   96.5690  110.1180 C.3       3 CLR523      0.0000
     84 O1        101.8320   84.4540   98.5040 O.2       3 CLR523      0.0000
     85 C1        106.7670   95.9180  103.3530 C.3       4 CLR524      0.0000
     86 C2        107.0280   96.2700  104.8060 C.3       4 CLR524      0.0000
     87 C3        105.7660   96.1160  105.7200 C.2       4 CLR524      0.0000
     88 C4        105.1520   94.6880  105.4510 C.3       4 CLR524      0.0000
     89 C5        104.9780   94.4010  104.0240 C.3       4 CLR524      0.0000
     90 C6        103.6700   93.8790  103.6070 C.3       4 CLR524      0.0000
     91 C7        103.3900   93.5050  102.2120 C.3       4 CLR524      0.0000
     92 C8        104.6550   93.3420  101.3800 C.3       4 CLR524      0.0000
     93 C9        105.6250   94.5200  101.5740 C.3       4 CLR524      0.0000
     94 C10       106.1230   94.5410  103.0790 C.3       4 CLR524      0.0000
     95 C11       106.7640   94.5770  100.5120 C.3       4 CLR524      0.0000
     96 C12       106.4620   94.1060   99.0760 C.3       4 CLR524      0.0000
     97 C13       105.5720   92.8750   99.0140 C.3       4 CLR524      0.0000
     98 C14       104.3240   93.1990   99.8850 C.3       4 CLR524      0.0000
     99 C15       103.3010   92.1310   99.4960 C.3       4 CLR524      0.0000
    100 C16       103.7200   91.6460   98.0960 C.3       4 CLR524      0.0000
    101 C17       104.8990   92.5240   97.6330 C.3       4 CLR524      0.0000
    102 C18       106.3850   91.6750   99.5640 C.3       4 CLR524      0.0000
    103 C19       107.1650   93.4270  103.3340 C.3       4 CLR524      0.0000
    104 C20       105.7890   91.8990   96.4900 C.3       4 CLR524      0.0000
    105 C21       106.4510   93.0230   95.6900 C.3       4 CLR524      0.0000
    106 C22       105.0390   90.9570   95.4990 C.3       4 CLR524      0.0000
    107 C23       105.9050   90.4400   94.3250 C.3       4 CLR524      0.0000
    108 C24       105.4410   89.1120   93.6740 C.3       4 CLR524      0.0000
    109 C25       106.6100   88.1340   93.3640 C.3       4 CLR524      0.0000
    110 C26       106.1280   86.8320   92.7200 C.3       4 CLR524      0.0000
    111 C27       107.6880   88.7580   92.4680 C.3       4 CLR524      0.0000
    112 O1        106.0210   96.3300  106.9760 O.2       4 CLR524      0.0000
    113 C1         85.2700  104.4160  123.0400 C.3       5 CLR526      0.0000
    114 C2         85.0050  105.3160  124.2310 C.3       5 CLR526      0.0000
    115 C3         86.0280  105.1170  125.3980 C.3       5 CLR526      0.0000
    116 C4         87.4790  105.1870  124.7800 C.3       5 CLR526      0.0000
    117 C5         87.6430  104.3360  123.5970 C.3       5 CLR526      0.0000
    118 C6         88.9180  103.6210  123.4730 C.3       5 CLR526      0.0000
    119 C7         89.1840  102.7040  122.3540 C.3       5 CLR526      0.0000
    120 C8         88.3370  103.0170  121.1230 C.3       5 CLR526      0.0000
    121 C9         86.8520  103.2120  121.4740 C.3       5 CLR526      0.0000
    122 C10        86.6970  104.4490  122.4530 C.3       5 CLR526      0.0000
    123 C11        85.9230  103.2430  120.2270 C.3       5 CLR526      0.0000
    124 C12        86.2560  102.3120  119.0450 C.3       5 CLR526      0.0000
    125 C13        87.7420  102.2550  118.7260 C.3       5 CLR526      0.0000
    126 C14        88.4600  101.9090  120.0650 C.3       5 CLR526      0.0000
    127 C15        89.8710  101.5060  119.6450 C.3       5 CLR526      0.0000
    128 C16        89.7440  101.0190  118.1930 C.3       5 CLR526      0.0000
    129 C17        88.2570  101.0930  117.7930 C.3       5 CLR526      0.0000
    130 C18        88.1480  103.6400  118.1640 C.3       5 CLR526      0.0000
    131 C19        86.9190  105.7900  121.7130 C.3       5 CLR526      0.0000
    132 C20        88.0150  101.1990  116.2420 C.3       5 CLR526      0.0000
    133 C21        86.5480  100.9040  115.9190 C.3       5 CLR526      0.0000
    134 C22        88.9170  100.2620  115.3800 C.3       5 CLR526      0.0000
    135 C23        88.8150   98.7500  115.6920 C.3       5 CLR526      0.0000
    136 C24        89.7470   97.8410  114.8500 C.3       5 CLR526      0.0000
    137 C25        89.0730   96.5270  114.3600 C.3       5 CLR526      0.0000
    138 C26        87.9340   96.7750  113.3660 C.3       5 CLR526      0.0000
    139 C27        90.0780   95.5560  113.7280 C.3       5 CLR526      0.0000
    140 O1         85.8510  105.9570  126.3750 O.3       5 CLR526      0.0000
    141 C1         80.3730  106.0470   95.2610 C.3       6 CLR527      0.0000
    142 C2         80.3030  106.3260   93.7730 C.3       6 CLR527      0.0000
    143 C3         80.1770  107.8450   93.4390 C.2       6 CLR527      0.0000
    144 C4         81.3430  108.5850   94.1970 C.3       6 CLR527      0.0000
    145 C5         81.3990  108.2470   95.6210 C.3       6 CLR527      0.0000
    146 C6         81.6270  109.3580   96.5520 C.3       6 CLR527      0.0000
    147 C7         81.5680  109.1670   98.0070 C.3       6 CLR527      0.0000
    148 C8         81.8670  107.7290   98.4190 C.3       6 CLR527      0.0000
    149 C9         81.0600  106.7060   97.6000 C.3       6 CLR527      0.0000
    150 C10        81.4390  106.8230   96.0690 C.3       6 CLR527      0.0000
    151 C11        81.1380  105.2640   98.1750 C.3       6 CLR527      0.0000
    152 C12        81.1440  105.0910   99.7040 C.3       6 CLR527      0.0000
    153 C13        82.0310  106.1010  100.4120 C.3       6 CLR527      0.0000
    154 C14        81.5760  107.5030   99.9090 C.3       6 CLR527      0.0000
    155 C15        82.1990  108.4850  100.8960 C.3       6 CLR527      0.0000
    156 C16        82.4110  107.6850  102.1900 C.3       6 CLR527      0.0000
    157 C17        81.8720  106.2600  101.9680 C.3       6 CLR527      0.0000
    158 C18        83.4940  105.7670  100.0380 C.3       6 CLR527      0.0000
    159 C19        82.8320  106.2090   95.7960 C.3       6 CLR527      0.0000
    160 C20        82.5280  105.1880  102.9050 C.3       6 CLR527      0.0000
    161 C21        81.8070  103.8460  102.7490 C.3       6 CLR527      0.0000
    162 C22        82.5470  105.5870  104.4110 C.3       6 CLR527      0.0000
    163 C23        81.1700  105.9290  105.0300 C.3       6 CLR527      0.0000
    164 C24        81.1570  106.0920  106.5710 C.3       6 CLR527      0.0000
    165 C25        81.8720  107.3830  107.0630 C.3       6 CLR527      0.0000
    166 C26        81.0420  108.6470  106.8220 C.3       6 CLR527      0.0000
    167 C27        82.2550  107.3110  108.5450 C.3       6 CLR527      0.0000
    168 O1         80.1610  108.0830   92.1620 O.2       6 CLR527      0.0000
    169 C1         97.7800  121.3660   80.9750 C.3       7 CLR528      0.0000
    170 C2         96.8860  120.6920   79.9500 C.3       7 CLR528      0.0000
    171 C3         97.6810  119.9790   78.8090 C.2       7 CLR528      0.0000
    172 C4         98.7400  119.0400   79.4990 C.3       7 CLR528      0.0000
    173 C5         99.5490  119.7330   80.5040 C.3       7 CLR528      0.0000
    174 C6        100.9700  119.3830   80.5500 C.3       7 CLR528      0.0000
    175 C7        101.9140  120.1190   81.4010 C.3       7 CLR528      0.0000
    176 C8        101.2460  120.7530   82.6200 C.3       7 CLR528      0.0000
    177 C9         99.9430  121.4920   82.2830 C.3       7 CLR528      0.0000
    178 C10        98.9040  120.5070   81.6030 C.3       7 CLR528      0.0000
    179 C11        99.3880  122.2800   83.4980 C.3       7 CLR528      0.0000
    180 C12       100.3890  123.0210   84.4110 C.3       7 CLR528      0.0000
    181 C13       101.6700  122.2360   84.6930 C.3       7 CLR528      0.0000
    182 C14       102.1860  121.7560   83.3030 C.3       7 CLR528      0.0000
    183 C15       103.6120  121.2990   83.5670 C.3       7 CLR528      0.0000
    184 C16       104.1060  122.1780   84.7220 C.3       7 CLR528      0.0000
    185 C17       102.9220  123.0250   85.2420 C.3       7 CLR528      0.0000
    186 C18       101.3080  121.0620   85.6310 C.3       7 CLR528      0.0000
    187 C19        98.2910  119.5480   82.6490 C.3       7 CLR528      0.0000
    188 C20       103.0400  123.3320   86.7770 C.3       7 CLR528      0.0000
    189 C21       101.8020  124.0860   87.2820 C.3       7 CLR528      0.0000
    190 C22       104.3450  124.1330   87.1150 C.3       7 CLR528      0.0000
    191 C23       104.4870  124.7020   88.5500 C.3       7 CLR528      0.0000
    192 C24       105.8830  125.3040   88.8730 C.3       7 CLR528      0.0000
    193 C25       105.9290  126.1510   90.1800 C.3       7 CLR528      0.0000
    194 C26       105.0790  127.4240   90.1080 C.3       7 CLR528      0.0000
    195 C27       105.5240  125.3460   91.4190 C.3       7 CLR528      0.0000
    196 O1         96.9130  119.3530   77.9680 O.2       7 CLR528      0.0000
    197 C1        103.8320   99.8390  125.2120 C.3       8 CLR529      0.0000
    198 C2        105.1260  100.2130  125.9130 C.3       8 CLR529      0.0000
    199 C3        106.3900  100.0830  124.9990 C.3       8 CLR529      0.0000
    200 C4        106.0880  100.8520  123.6570 C.3       8 CLR529      0.0000
    201 C5        104.8030  100.4760  123.0600 C.3       8 CLR529      0.0000
    202 C6        104.7900  100.2570  121.6080 C.3       8 CLR529      0.0000
    203 C7        103.5690   99.8450  120.9020 C.3       8 CLR529      0.0000
    204 C8        102.3030  100.2070  121.6710 C.3       8 CLR529      0.0000
    205 C9        102.3820   99.7460  123.1350 C.3       8 CLR529      0.0000
    206 C10       103.5470  100.5350  123.8620 C.3       8 CLR529      0.0000
    207 C11       101.0130   99.7770  123.8710 C.3       8 CLR529      0.0000
    208 C12        99.7590   99.3550  123.0850 C.3       8 CLR529      0.0000
    209 C13        99.7020   99.9580  121.6920 C.3       8 CLR529      0.0000
    210 C14       101.0550   99.6010  120.9970 C.3       8 CLR529      0.0000
    211 C15       100.8150   99.9590  119.5320 C.3       8 CLR529      0.0000
    212 C16        99.3020   99.7900  119.3190 C.3       8 CLR529      0.0000
    213 C17        98.6770   99.3520  120.6620 C.3       8 CLR529      0.0000
    214 C18        99.4580  101.4790  121.8620 C.3       8 CLR529      0.0000
    215 C19       103.1410  102.0050  124.1130 C.3       8 CLR529      0.0000
    216 C20        97.1510   99.7090  120.8070 C.3       8 CLR529      0.0000
    217 C21        96.5360   98.9220  121.9680 C.3       8 CLR529      0.0000
    218 C22        96.3090   99.4530  119.5180 C.3       8 CLR529      0.0000
    219 C23        96.3360   98.0020  118.9780 C.3       8 CLR529      0.0000
    220 C24        95.5630   97.7690  117.6550 C.3       8 CLR529      0.0000
    221 C25        94.3680   96.7840  117.7960 C.3       8 CLR529      0.0000
    222 C26        93.3000   97.2770  118.7760 C.3       8 CLR529      0.0000
    223 C27        93.7050   96.4730  116.4500 C.3       8 CLR529      0.0000
    224 O1        107.4800  100.4870  125.5810 O.3       8 CLR529      0.0000
    225 C1         91.0920  134.9060  111.6600 C.3       9 CLR530      0.0000
    226 C2         90.7860  135.7030  112.9150 C.3       9 CLR530      0.0000
    227 C3         89.2610  135.9750  113.1210 C.3       9 CLR530      0.0000
    228 C4         88.5210  134.5910  113.0060 C.3       9 CLR530      0.0000
    229 C5         88.8780  133.8550  111.7910 C.3       9 CLR530      0.0000
    230 C6         87.7860  133.1540  111.1080 C.3       9 CLR530      0.0000
    231 C7         87.9980  132.4570  109.8320 C.3       9 CLR530      0.0000
    232 C8         89.4530  132.0470  109.6130 C.3       9 CLR530      0.0000
    233 C9         90.4420  133.1780  109.9300 C.3       9 CLR530      0.0000
    234 C10        90.3050  133.5900  111.4510 C.3       9 CLR530      0.0000
    235 C11        91.8940  132.8680  109.4680 C.3       9 CLR530      0.0000
    236 C12        92.1040  132.0770  108.1570 C.3       9 CLR530      0.0000
    237 C13        91.0870  130.9610  107.9350 C.3       9 CLR530      0.0000
    238 C14        89.6840  131.5960  108.1650 C.3       9 CLR530      0.0000
    239 C15        88.7050  130.5750  107.5990 C.3       9 CLR530      0.0000
    240 C16        89.4850  129.8220  106.5140 C.3       9 CLR530      0.0000
    241 C17        90.9260  130.3760  106.4760 C.3       9 CLR530      0.0000
    242 C18        91.4100  129.8380  108.9430 C.3       9 CLR530      0.0000
    243 C19        90.8780  132.4890  112.3720 C.3       9 CLR530      0.0000
    244 C20        91.9810  129.3370  105.9420 C.3       9 CLR530      0.0000
    245 C21        93.3390  130.0190  105.7450 C.3       9 CLR530      0.0000
    246 C22        91.5620  128.6390  104.6060 C.3       9 CLR530      0.0000
    247 C23        92.5220  127.5480  104.0710 C.3       9 CLR530      0.0000
    248 C24        92.0390  126.8360  102.7800 C.3       9 CLR530      0.0000
    249 C25        92.8910  125.5990  102.3750 C.3       9 CLR530      0.0000
    250 C26        92.2500  124.8040  101.2340 C.3       9 CLR530      0.0000
    251 C27        94.3290  125.9550  101.9750 C.3       9 CLR530      0.0000
    252 O1         89.0020  136.6020  114.2310 O.3       9 CLR530      0.0000
    253 C1         79.7300   94.9220   92.8720 C.3      10 CLR531      0.0000
    254 C2         79.5390   95.6000   91.5290 C.3      10 CLR531      0.0000
    255 C3         79.3390   97.1460   91.6400 C.2      10 CLR531      0.0000
    256 C4         80.5160   97.7130   92.5240 C.3      10 CLR531      0.0000
    257 C5         80.6890   96.9830   93.7840 C.3      10 CLR531      0.0000
    258 C6         80.6430   97.7720   95.0200 C.3      10 CLR531      0.0000
    259 C7         81.0190   97.2070   96.3270 C.3      10 CLR531      0.0000
    260 C8         81.4140   95.7320   96.2670 C.3      10 CLR531      0.0000
    261 C9         80.5850   94.9310   95.2500 C.3      10 CLR531      0.0000
    262 C10        80.8270   95.5000   93.7960 C.3      10 CLR531      0.0000
    263 C11        80.7810   93.3950   95.3720 C.3      10 CLR531      0.0000
    264 C12        80.9910   92.7820   96.7700 C.3      10 CLR531      0.0000
    265 C13        81.8570   93.6310   97.6940 C.3      10 CLR531      0.0000
    266 C14        81.2660   95.0680   97.6460 C.3      10 CLR531      0.0000
    267 C15        81.9050   95.7780   98.8340 C.3      10 CLR531      0.0000
    268 C16        82.2270   94.6690   99.8500 C.3      10 CLR531      0.0000
    269 C17        81.8220   93.3130   99.2360 C.3      10 CLR531      0.0000
    270 C18        83.3060   93.5630   97.1710 C.3      10 CLR531      0.0000
    271 C19        82.2170   95.0820   93.2650 C.3      10 CLR531      0.0000
    272 C20        82.6710   92.1020   99.7650 C.3      10 CLR531      0.0000
    273 C21        82.2700   90.8180   99.0300 C.3      10 CLR531      0.0000
    274 C22        82.5640   91.8690  101.3080 C.3      10 CLR531      0.0000
    275 C23        83.5310   90.8070  101.8900 C.3      10 CLR531      0.0000
    276 C24        83.8400   90.9380  103.4020 C.3      10 CLR531      0.0000
    277 C25        84.9470   89.9590  103.8910 C.3      10 CLR531      0.0000
    278 C26        85.5530   90.3800  105.2320 C.3      10 CLR531      0.0000
    279 C27        84.4530   88.5110  104.0050 C.3      10 CLR531      0.0000
    280 O1         79.2450   97.7310   90.4830 O.2      10 CLR531      0.0000
@<TRIPOS>BOND
     1    1    2 1
     2    1   10 1
     3    2    3 1
     4    3    4 1
     5    3   28 2
     6    4    5 1
     7    5    6 1
     8    5   10 1
     9    6    7 1
    10    7    8 1
    11    8    9 1
    12    8   14 1
    13    9   10 1
    14    9   11 1
    15   10   19 1
    16   11   12 1
    17   12   13 1
    18   13   14 1
    19   13   17 1
    20   13   18 1
    21   14   15 1
    22   15   16 1
    23   16   17 1
    24   17   20 1
    25   20   21 1
    26   20   22 1
    27   22   23 1
    28   23   24 1
    29   24   25 1
    30   25   26 1
    31   25   27 1
    32   29   30 1
    33   29   38 1
    34   30   31 1
    35   31   32 1
    36   31   56 1
    37   32   33 1
    38   33   34 1
    39   33   38 1
    40   34   35 1
    41   35   36 1
    42   36   37 1
    43   36   42 1
    44   37   38 1
    45   37   39 1
    46   38   47 1
    47   39   40 1
    48   40   41 1
    49   41   42 1
    50   41   45 1
    51   41   46 1
    52   42   43 1
    53   43   44 1
    54   44   45 1
    55   45   48 1
    56   48   49 1
    57   48   50 1
    58   50   51 1
    59   51   52 1
    60   52   53 1
    61   53   54 1
    62   53   55 1
    63   57   58 1
    64   57   66 1
    65   58   59 1
    66   59   60 1
    67   59   84 2
    68   60   61 1
    69   61   62 1
    70   61   66 1
    71   62   63 1
    72   63   64 1
    73   64   65 1
    74   64   70 1
    75   65   66 1
    76   65   67 1
    77   66   75 1
    78   67   68 1
    79   68   69 1
    80   69   70 1
    81   69   73 1
    82   69   74 1
    83   70   71 1
    84   71   72 1
    85   72   73 1
    86   73   76 1
    87   76   77 1
    88   76   78 1
    89   78   79 1
    90   79   80 1
    91   80   81 1
    92   81   82 1
    93   81   83 1
    94   85   86 1
    95   85   94 1
    96   86   87 1
    97   87   88 1
    98   87  112 2
    99   88   89 1
   100   89   90 1
   101   89   94 1
   102   90   91 1
   103   91   92 1
   104   92   93 1
   105   92   98 1
   106   93   94 1
   107   93   95 1
   108   94  103 1
   109   95   96 1
   110   96   97 1
   111   97   98 1
   112   97  101 1
   113   97  102 1
   114   98   99 1
   115   99  100 1
   116  100  101 1
   117  101  104 1
   118  104  105 1
   119  104  106 1
   120  106  107 1
   121  107  108 1
   122  108  109 1
   123  109  110 1
   124  109  111 1
   125  113  114 1
   126  113  122 1
   127  114  115 1
   128  115  116 1
   129  115  140 1
   130  116  117 1
   131  117  118 1
   132  117  122 1
   133  118  119 1
   134  119  120 1
   135  120  121 1
   136  120  126 1
   137  121  122 1
   138  121  123 1
   139  122  131 1
   140  123  124 1
   141  124  125 1
   142  125  126 1
   143  125  129 1
   144  125  130 1
   145  126  127 1
   146  127  128 1
   147  128  129 1
   148  129  132 1
   149  132  133 1
   150  132  134 1
   151  134  135 1
   152  135  136 1
   153  136  137 1
   154  137  138 1
   155  137  139 1
   156  141  142 1
   157  141  150 1
   158  142  143 1
   159  143  144 1
   160  143  168 2
   161  144  145 1
   162  145  146 1
   163  145  150 1
   164  146  147 1
   165  147  148 1
   166  148  149 1
   167  148  154 1
   168  149  150 1
   169  149  151 1
   170  150  159 1
   171  151  152 1
   172  152  153 1
   173  153  154 1
   174  153  157 1
   175  153  158 1
   176  154  155 1
   177  155  156 1
   178  156  157 1
   179  157  160 1
   180  160  161 1
   181  160  162 1
   182  162  163 1
   183  163  164 1
   184  164  165 1
   185  165  166 1
   186  165  167 1
   187  169  170 1
   188  169  178 1
   189  170  171 1
   190  171  172 1
   191  171  196 2
   192  172  173 1
   193  173  174 1
   194  173  178 1
   195  174  175 1
   196  175  176 1
   197  176  177 1
   198  176  182 1
   199  177  178 1
   200  177  179 1
   201  178  187 1
   202  179  180 1
   203  180  181 1
   204  181  182 1
   205  181  185 1
   206  181  186 1
   207  182  183 1
   208  183  184 1
   209  184  185 1
   210  185  188 1
   211  188  189 1
   212  188  190 1
   213  190  191 1
   214  191  192 1
   215  192  193 1
   216  193  194 1
   217  193  195 1
   218  197  198 1
   219  197  206 1
   220  198  199 1
   221  199  200 1
   222  199  224 1
   223  200  201 1
   224  201  202 1
   225  201  206 1
   226  202  203 1
   227  203  204 1
   228  204  205 1
   229  204  210 1
   230  205  206 1
   231  205  207 1
   232  206  215 1
   233  207  208 1
   234  208  209 1
   235  209  210 1
   236  209  213 1
   237  209  214 1
   238  210  211 1
   239  211  212 1
   240  212  213 1
   241  213  216 1
   242  216  217 1
   243  216  218 1
   244  218  219 1
   245  219  220 1
   246  220  221 1
   247  221  222 1
   248  221  223 1
   249  225  226 1
   250  225  234 1
   251  226  227 1
   252  227  228 1
   253  227  252 1
   254  228  229 1
   255  229  230 1
   256  229  234 1
   257  230  231 1
   258  231  232 1
   259  232  233 1
   260  232  238 1
   261  233  234 1
   262  233  235 1
   263  234  243 1
   264  235  236 1
   265  236  237 1
   266  237  238 1
   267  237  241 1
   268  237  242 1
   269  238  239 1
   270  239  240 1
   271  240  241 1
   272  241  244 1
   273  244  245 1
   274  244  246 1
   275  246  247 1
   276  247  248 1
   277  248  249 1
   278  249  250 1
   279  249  251 1
   280  253  254 1
   281  253  262 1
   282  254  255 1
   283  255  256 1
   284  255  280 2
   285  256  257 1
   286  257  258 1
   287  257  262 1
   288  258  259 1
   289  259  260 1
   290  260  261 1
   291  260  266 1
   292  261  262 1
   293  261  263 1
   294  262  271 1
   295  263  264 1
   296  264  265 1
   297  265  266 1
   298  265  269 1
   299  265  270 1
   300  266  267 1
   301  267  268 1
   302  268  269 1
   303  269  272 1
   304  272  273 1
   305  272  274 1
   306  274  275 1
   307  275  276 1
   308  276  277 1
   309  277  278 1
   310  277  279 1
@<TRIPOS>SUBSTRUCTURE
     1 CLR521      1 RESIDUE           4 R     CLR     0 ROOT
     2 CLR522     29 RESIDUE           4 R     CLR     0 ROOT
     3 CLR523     57 RESIDUE           4 R     CLR     0 ROOT
     4 CLR524     85 RESIDUE           4 R     CLR     0 ROOT
     5 CLR526    113 RESIDUE           4 R     CLR     0 ROOT
     6 CLR527    141 RESIDUE           4 R     CLR     0 ROOT
     7 CLR528    169 RESIDUE           4 R     CLR     0 ROOT
     8 CLR529    197 RESIDUE           4 R     CLR     0 ROOT
     9 CLR530    225 RESIDUE           4 R     CLR     0 ROOT
    10 CLR531    253 RESIDUE           4 R     CLR     0 ROOT
