@<TRIPOS>MOLECULE
CLR
112 124 4 0 0
SMALL
NO_CHARGES


@<TRIPOS>ATOM
      1 C1         84.0220  117.5120  114.4390 C.3       1 CLR522      0.0000
      2 C2         84.4360  118.2990  115.6710 C.3       1 CLR522      0.0000
      3 C3         85.1050  117.4310  116.7980 C.3       1 CLR522      0.0000
      4 C4         86.1790  116.4760  116.1340 C.3       1 CLR522      0.0000
      5 C5         85.6990  115.8180  114.9180 C.3       1 CLR522      0.0000
      6 C6         85.7840  114.3600  114.8460 C.3       1 CLR522      0.0000
      7 C7         85.8600  113.6710  113.5480 C.3       1 CLR522      0.0000
      8 C8         85.4330  114.5660  112.3760 C.3       1 CLR522      0.0000
      9 C9         84.4160  115.6440  112.7740 C.3       1 CLR522      0.0000
     10 C10        85.0960  116.6020  113.8130 C.3       1 CLR522      0.0000
     11 C11        83.7930  116.3800  111.5570 C.3       1 CLR522      0.0000
     12 C12        83.6430  115.6310  110.2080 C.3       1 CLR522      0.0000
     13 C13        84.7430  114.6050  109.9430 C.3       1 CLR522      0.0000
     14 C14        84.8300  113.7510  111.2310 C.3       1 CLR522      0.0000
     15 C15        85.5500  112.4750  110.8200 C.3       1 CLR522      0.0000
     16 C16        85.3100  112.3290  109.3090 C.3       1 CLR522      0.0000
     17 C17        84.4950  113.5410  108.8180 C.3       1 CLR522      0.0000
     18 C18        86.0470  115.3740  109.6650 C.3       1 CLR522      0.0000
     19 C19        86.1600  117.4450  113.1030 C.3       1 CLR522      0.0000
     20 C20        84.8340  113.9680  107.3550 C.3       1 CLR522      0.0000
     21 C21        84.0380  115.2210  106.9820 C.3       1 CLR522      0.0000
     22 C22        84.5680  112.8550  106.2930 C.3       1 CLR522      0.0000
     23 C23        85.5160  112.8520  105.0680 C.3       1 CLR522      0.0000
     24 C24        85.5220  111.5420  104.2360 C.3       1 CLR522      0.0000
     25 C25        84.1800  111.2750  103.4950 C.3       1 CLR522      0.0000
     26 C26        84.0490  109.8280  103.0100 C.3       1 CLR522      0.0000
     27 C27        83.9680  112.2170  102.3030 C.3       1 CLR522      0.0000
     28 O1         85.5990  118.1530  117.7600 O.3       1 CLR522      0.0000
     29 C1         84.4130  116.4480   86.2750 C.3       2 CLR523      0.0000
     30 C2         84.6160  116.5670   84.7740 C.3       2 CLR523      0.0000
     31 C3         85.2620  117.9240   84.3260 C.3       2 CLR523      0.0000
     32 C4         86.5180  118.2000   85.2450 C.3       2 CLR523      0.0000
     33 C5         86.2430  118.0090   86.6710 C.3       2 CLR523      0.0000
     34 C6         86.3100  119.1900   87.5270 C.3       2 CLR523      0.0000
     35 C7         86.5260  119.0560   88.9720 C.3       2 CLR523      0.0000
     36 C8         86.2000  117.6470   89.4860 C.3       2 CLR523      0.0000
     37 C9         85.1360  116.9130   88.6480 C.3       2 CLR523      0.0000
     38 C10        85.6360  116.7470   87.1670 C.3       2 CLR523      0.0000
     39 C11        84.6930  115.5810   89.2970 C.3       2 CLR523      0.0000
     40 C12        84.5430  115.5320   90.8260 C.3       2 CLR523      0.0000
     41 C13        85.6800  116.2470   91.5310 C.3       2 CLR523      0.0000
     42 C14        85.7110  117.6780   90.9410 C.3       2 CLR523      0.0000
     43 C15        86.5160  118.5000   91.9450 C.3       2 CLR523      0.0000
     44 C16        86.5470  117.6610   93.2360 C.3       2 CLR523      0.0000
     45 C17        85.5730  116.4900   93.0630 C.3       2 CLR523      0.0000
     46 C18        86.9660  115.4820   91.2150 C.3       2 CLR523      0.0000
     47 C19        86.6410  115.5870   87.0980 C.3       2 CLR523      0.0000
     48 C20        85.8730  115.2670   93.9860 C.3       2 CLR523      0.0000
     49 C21        84.9730  114.0910   93.5950 C.3       2 CLR523      0.0000
     50 C22        85.7090  115.5520   95.5100 C.3       2 CLR523      0.0000
     51 C23        86.7190  114.8270   96.4330 C.3       2 CLR523      0.0000
     52 C24        86.4360  114.9430   97.9530 C.3       2 CLR523      0.0000
     53 C25        87.5990  114.4150   98.8370 C.3       2 CLR523      0.0000
     54 C26        88.7660  115.4020   98.9280 C.3       2 CLR523      0.0000
     55 C27        87.1390  114.0580  100.2540 C.3       2 CLR523      0.0000
     56 O1         85.5480  117.9500   83.0580 O.3       2 CLR523      0.0000
     57 C1        102.0760   87.2920  101.4990 C.3       3 CLR524      0.0000
     58 C2        102.2740   86.7830  100.0820 C.3       3 CLR524      0.0000
     59 C3        101.0230   86.0490   99.4960 C.3       3 CLR524      0.0000
     60 C4         99.7760   86.9890   99.7050 C.3       3 CLR524      0.0000
     61 C5         99.6560   87.4770  101.0800 C.3       3 CLR524      0.0000
     62 C6         98.4410   87.1210  101.8140 C.3       3 CLR524      0.0000
     63 C7         98.0160   87.9040  102.9830 C.3       3 CLR524      0.0000
     64 C8         99.1590   88.7420  103.5650 C.3       3 CLR524      0.0000
     65 C9        100.5400   88.1210  103.3210 C.3       3 CLR524      0.0000
     66 C10       100.8020   88.1230  101.7790 C.3       3 CLR524      0.0000
     67 C11       101.6770   88.7800  104.1460 C.3       3 CLR524      0.0000
     68 C12       101.3470   89.4510  105.5020 C.3       3 CLR524      0.0000
     69 C13        99.9540   90.0720  105.5590 C.3       3 CLR524      0.0000
     70 C14        98.9960   88.9620  105.0670 C.3       3 CLR524      0.0000
     71 C15        97.6200   89.3620  105.5730 C.3       3 CLR524      0.0000
     72 C16        97.8710   90.2090  106.8280 C.3       3 CLR524      0.0000
     73 C17        99.3870   90.4520  106.9730 C.3       3 CLR524      0.0000
     74 C18        99.9550   91.3030  104.6300 C.3       3 CLR524      0.0000
     75 C19       100.9910   89.5770  101.3110 C.3       3 CLR524      0.0000
     76 C20        99.7360   91.8740  107.5080 C.3       3 CLR524      0.0000
     77 C21       101.2370   92.1370  107.3600 C.3       3 CLR524      0.0000
     78 C22        99.3180   92.1110  108.9900 C.3       3 CLR524      0.0000
     79 C23        98.6990   93.4940  109.2920 C.3       3 CLR524      0.0000
     80 C24        98.0280   93.6290  110.6810 C.3       3 CLR524      0.0000
     81 C25        98.5920   94.8090  111.5190 C.3       3 CLR524      0.0000
     82 C26       100.0030   94.5330  112.0430 C.3       3 CLR524      0.0000
     83 C27        98.5980   96.1280  110.7390 C.3       3 CLR524      0.0000
     84 O1        101.1810   85.6830   98.2580 O.3       3 CLR524      0.0000
     85 C1        108.8240   96.2450  103.5120 C.3       4 CLR525      0.0000
     86 C2        109.1090   96.7310  104.9220 C.3       4 CLR525      0.0000
     87 C3        107.8220   97.1090  105.7310 C.3       4 CLR525      0.0000
     88 C4        106.8070   95.9070  105.6140 C.3       4 CLR525      0.0000
     89 C5        106.6140   95.4510  104.2360 C.3       4 CLR525      0.0000
     90 C6        105.2550   95.4970  103.6940 C.3       4 CLR525      0.0000
     91 C7        104.8710   94.6400  102.5630 C.3       4 CLR525      0.0000
     92 C8        106.0850   94.1600  101.7560 C.3       4 CLR525      0.0000
     93 C9        107.2890   95.1080  101.8630 C.3       4 CLR525      0.0000
     94 C10       107.7680   95.1280  103.3530 C.3       4 CLR525      0.0000
     95 C11       108.4200   94.7930  100.8500 C.3       4 CLR525      0.0000
     96 C12       108.0560   94.1660   99.4830 C.3       4 CLR525      0.0000
     97 C13       106.8810   93.1980   99.5560 C.3       4 CLR525      0.0000
     98 C14       105.7540   93.9810  100.2710 C.3       4 CLR525      0.0000
     99 C15       104.4620   93.2520   99.9160 C.3       4 CLR525      0.0000
    100 C16       104.7640   92.4630   98.6310 C.3       4 CLR525      0.0000
    101 C17       106.2160   92.7550   98.2070 C.3       4 CLR525      0.0000
    102 C18       107.3410   91.9730  100.3660 C.3       4 CLR525      0.0000
    103 C19       108.3730   93.7560  103.7020 C.3       4 CLR525      0.0000
    104 C20       106.8980   91.5860   97.4250 C.3       4 CLR525      0.0000
    105 C21       108.0620   92.1320   96.5940 C.3       4 CLR525      0.0000
    106 C22       105.9370   90.7920   96.4900 C.3       4 CLR525      0.0000
    107 C23       106.6110   90.1480   95.2570 C.3       4 CLR525      0.0000
    108 C24       105.9330   88.8630   94.7220 C.3       4 CLR525      0.0000
    109 C25       106.9520   87.8050   94.2160 C.3       4 CLR525      0.0000
    110 C26       106.3050   86.7470   93.3180 C.3       4 CLR525      0.0000
    111 C27       108.1320   88.4390   93.4710 C.3       4 CLR525      0.0000
    112 O1        108.0770   97.4380  106.9630 O.3       4 CLR525      0.0000
@<TRIPOS>BOND
     1    1    2 1
     2    1   10 1
     3    2    3 1
     4    3    4 1
     5    3   28 1
     6    4    5 1
     7    5    6 1
     8    5   10 1
     9    6    7 1
    10    7    8 1
    11    8    9 1
    12    8   14 1
    13    9   10 1
    14    9   11 1
    15   10   19 1
    16   11   12 1
    17   12   13 1
    18   13   14 1
    19   13   17 1
    20   13   18 1
    21   14   15 1
    22   15   16 1
    23   16   17 1
    24   17   20 1
    25   20   21 1
    26   20   22 1
    27   22   23 1
    28   23   24 1
    29   24   25 1
    30   25   26 1
    31   25   27 1
    32   29   30 1
    33   29   38 1
    34   30   31 1
    35   31   32 1
    36   31   56 1
    37   32   33 1
    38   33   34 1
    39   33   38 1
    40   34   35 1
    41   35   36 1
    42   36   37 1
    43   36   42 1
    44   37   38 1
    45   37   39 1
    46   38   47 1
    47   39   40 1
    48   40   41 1
    49   41   42 1
    50   41   45 1
    51   41   46 1
    52   42   43 1
    53   43   44 1
    54   44   45 1
    55   45   48 1
    56   48   49 1
    57   48   50 1
    58   50   51 1
    59   51   52 1
    60   52   53 1
    61   53   54 1
    62   53   55 1
    63   57   58 1
    64   57   66 1
    65   58   59 1
    66   59   60 1
    67   59   84 1
    68   60   61 1
    69   61   62 1
    70   61   66 1
    71   62   63 1
    72   63   64 1
    73   64   65 1
    74   64   70 1
    75   65   66 1
    76   65   67 1
    77   66   75 1
    78   67   68 1
    79   68   69 1
    80   69   70 1
    81   69   73 1
    82   69   74 1
    83   70   71 1
    84   71   72 1
    85   72   73 1
    86   73   76 1
    87   76   77 1
    88   76   78 1
    89   78   79 1
    90   79   80 1
    91   80   81 1
    92   81   82 1
    93   81   83 1
    94   85   86 1
    95   85   94 1
    96   86   87 1
    97   87   88 1
    98   87  112 1
    99   88   89 1
   100   89   90 1
   101   89   94 1
   102   90   91 1
   103   91   92 1
   104   92   93 1
   105   92   98 1
   106   93   94 1
   107   93   95 1
   108   94  103 1
   109   95   96 1
   110   96   97 1
   111   97   98 1
   112   97  101 1
   113   97  102 1
   114   98   99 1
   115   99  100 1
   116  100  101 1
   117  101  104 1
   118  104  105 1
   119  104  106 1
   120  106  107 1
   121  107  108 1
   122  108  109 1
   123  109  110 1
   124  109  111 1
@<TRIPOS>SUBSTRUCTURE
     1 CLR522      1 RESIDUE           4 R     CLR     0 ROOT
     2 CLR523     29 RESIDUE           4 R     CLR     0 ROOT
     3 CLR524     57 RESIDUE           4 R     CLR     0 ROOT
     4 CLR525     85 RESIDUE           4 R     CLR     0 ROOT
