@<TRIPOS>MOLECULE
CLR
84 93 3 0 0
SMALL
NO_CHARGES


@<TRIPOS>ATOM
      1 C1         86.6700  119.9930  118.8220 C.3       1 CLR521      0.0000
      2 C2         87.2240  120.7170  120.0380 C.3       1 CLR521      0.0000
      3 C3         87.8560  119.7660  121.1090 C.2       1 CLR521      0.0000
      4 C4         88.8530  118.8010  120.3610 C.3       1 CLR521      0.0000
      5 C5         88.2490  118.1620  119.1910 C.3       1 CLR521      0.0000
      6 C6         88.4990  116.7300  119.0170 C.3       1 CLR521      0.0000
      7 C7         87.9770  115.9980  117.8580 C.3       1 CLR521      0.0000
      8 C8         87.6200  116.9220  116.7020 C.3       1 CLR521      0.0000
      9 C9         86.7570  118.1030  117.1510 C.3       1 CLR521      0.0000
     10 C10        87.6120  118.9870  118.1230 C.3       1 CLR521      0.0000
     11 C11        86.1540  118.8990  115.9610 C.3       1 CLR521      0.0000
     12 C12        85.8330  118.1570  114.6340 C.3       1 CLR521      0.0000
     13 C13        86.7970  117.0190  114.3000 C.3       1 CLR521      0.0000
     14 C14        86.8820  116.1720  115.5930 C.3       1 CLR521      0.0000
     15 C15        87.4380  114.8260  115.1560 C.3       1 CLR521      0.0000
     16 C16        86.9840  114.6540  113.7020 C.3       1 CLR521      0.0000
     17 C17        86.3570  115.9790  113.2100 C.3       1 CLR521      0.0000
     18 C18        88.1500  117.6460  113.9030 C.3       1 CLR521      0.0000
     19 C19        88.6770  119.7300  117.3030 C.3       1 CLR521      0.0000
     20 C20        86.7180  116.3220  111.7300 C.3       1 CLR521      0.0000
     21 C21        85.4940  116.9010  111.0180 C.3       1 CLR521      0.0000
     22 C22        87.2660  115.1150  110.9080 C.3       1 CLR521      0.0000
     23 C23        87.4610  115.3700  109.3950 C.3       1 CLR521      0.0000
     24 C24        87.6990  114.1040  108.5340 C.3       1 CLR521      0.0000
     25 C25        86.5270  113.0840  108.6060 C.3       1 CLR521      0.0000
     26 C26        86.7580  111.8590  107.7170 C.3       1 CLR521      0.0000
     27 C27        85.1770  113.7130  108.2370 C.3       1 CLR521      0.0000
     28 O1         88.4140  120.4100  122.0900 O.2       1 CLR521      0.0000
     29 C1         85.3240  118.2160   91.5610 C.3       2 CLR522      0.0000
     30 C2         85.4830  118.2510   90.0510 C.3       2 CLR522      0.0000
     31 C3         86.3460  119.4530   89.5430 C.2       2 CLR522      0.0000
     32 C4         87.6920  119.4450   90.3610 C.3       2 CLR522      0.0000
     33 C5         87.4750  119.3810   91.8080 C.3       2 CLR522      0.0000
     34 C6         88.2990  120.2650   92.6380 C.3       2 CLR522      0.0000
     35 C7         88.1700  120.2900   94.1010 C.3       2 CLR522      0.0000
     36 C8         87.4800  119.0430   94.6500 C.3       2 CLR522      0.0000
     37 C9         86.2090  118.6830   93.8730 C.3       2 CLR522      0.0000
     38 C10        86.6160  118.3160   92.4070 C.3       2 CLR522      0.0000
     39 C11        85.3680  117.5790   94.5660 C.3       2 CLR522      0.0000
     40 C12        85.3880  117.4700   96.1140 C.3       2 CLR522      0.0000
     41 C13        86.7270  117.8360   96.7540 C.3       2 CLR522      0.0000
     42 C14        87.1150  119.2000   96.1300 C.3       2 CLR522      0.0000
     43 C15        88.1630  119.7850   97.0640 C.3       2 CLR522      0.0000
     44 C16        87.8650  119.1790   98.4440 C.3       2 CLR522      0.0000
     45 C17        86.7520  118.1180   98.2970 C.3       2 CLR522      0.0000
     46 C18        87.7360  116.7180   96.4190 C.3       2 CLR522      0.0000
     47 C19        87.3480  116.9630   92.4250 C.3       2 CLR522      0.0000
     48 C20        86.9470  116.8820   99.2330 C.3       2 CLR522      0.0000
     49 C21        85.5910  116.2460   99.5530 C.3       2 CLR522      0.0000
     50 C22        87.6910  117.1980  100.5670 C.3       2 CLR522      0.0000
     51 C23        87.6370  116.0830  101.6380 C.3       2 CLR522      0.0000
     52 C24        88.4820  116.3400  102.9100 C.3       2 CLR522      0.0000
     53 C25        88.1400  115.3750  104.0780 C.3       2 CLR522      0.0000
     54 C26        89.1060  115.5150  105.2580 C.3       2 CLR522      0.0000
     55 C27        86.7040  115.5530  104.5850 C.3       2 CLR522      0.0000
     56 O1         86.5320  119.4350   88.2570 O.2       2 CLR522      0.0000
     57 C1         80.7160   97.4700   96.9500 C.3       3 CLR523      0.0000
     58 C2         80.3130   98.1100   95.6330 C.3       3 CLR523      0.0000
     59 C3         79.7580   99.5640   95.7920 C.3       3 CLR523      0.0000
     60 C4         80.8030  100.3770   96.6470 C.3       3 CLR523      0.0000
     61 C5         81.1710   99.6940   97.8900 C.3       3 CLR523      0.0000
     62 C6         81.2550  100.5200   99.0980 C.3       3 CLR523      0.0000
     63 C7         81.5810   99.9390  100.4070 C.3       3 CLR523      0.0000
     64 C8         82.2880   98.5890  100.2900 C.3       3 CLR523      0.0000
     65 C9         81.6020   97.6450   99.2980 C.3       3 CLR523      0.0000
     66 C10        81.6580   98.2830   97.8690 C.3       3 CLR523      0.0000
     67 C11        82.1840   96.2100   99.3390 C.3       3 CLR523      0.0000
     68 C12        82.7360   95.6570  100.6770 C.3       3 CLR523      0.0000
     69 C13        83.3890   96.7010  101.5870 C.3       3 CLR523      0.0000
     70 C14        82.3780   97.8730  101.6420 C.3       3 CLR523      0.0000
     71 C15        82.7830   98.6920  102.8580 C.3       3 CLR523      0.0000
     72 C16        83.4250   97.6880  103.8270 C.3       3 CLR523      0.0000
     73 C17        83.5990   96.3300  103.1070 C.3       3 CLR523      0.0000
     74 C18        84.7340   97.1200  100.9490 C.3       3 CLR523      0.0000
     75 C19        83.1050   98.2060   97.3520 C.3       3 CLR523      0.0000
     76 C20        84.9210   95.5890  103.5200 C.3       3 CLR523      0.0000
     77 C21        84.9490   94.1550  102.9760 C.3       3 CLR523      0.0000
     78 C22        85.1500   95.5320  105.0620 C.3       3 CLR523      0.0000
     79 C23        84.4580   94.3430  105.7770 C.3       3 CLR523      0.0000
     80 C24        84.9410   94.0390  107.2170 C.3       3 CLR523      0.0000
     81 C25        84.6600   92.5720  107.6540 C.3       3 CLR523      0.0000
     82 C26        84.9230   92.3360  109.1430 C.3       3 CLR523      0.0000
     83 C27        83.2360   92.1150  107.3140 C.3       3 CLR523      0.0000
     84 O1         79.4840  100.1280   94.6530 O.3       3 CLR523      0.0000
@<TRIPOS>BOND
     1    1    2 1
     2    1   10 1
     3    2    3 1
     4    3    4 1
     5    3   28 2
     6    4    5 1
     7    5    6 1
     8    5   10 1
     9    6    7 1
    10    7    8 1
    11    8    9 1
    12    8   14 1
    13    9   10 1
    14    9   11 1
    15   10   19 1
    16   11   12 1
    17   12   13 1
    18   13   14 1
    19   13   17 1
    20   13   18 1
    21   14   15 1
    22   15   16 1
    23   16   17 1
    24   17   20 1
    25   20   21 1
    26   20   22 1
    27   22   23 1
    28   23   24 1
    29   24   25 1
    30   25   26 1
    31   25   27 1
    32   29   30 1
    33   29   38 1
    34   30   31 1
    35   31   32 1
    36   31   56 2
    37   32   33 1
    38   33   34 1
    39   33   38 1
    40   34   35 1
    41   35   36 1
    42   36   37 1
    43   36   42 1
    44   37   38 1
    45   37   39 1
    46   38   47 1
    47   39   40 1
    48   40   41 1
    49   41   42 1
    50   41   45 1
    51   41   46 1
    52   42   43 1
    53   43   44 1
    54   44   45 1
    55   45   48 1
    56   48   49 1
    57   48   50 1
    58   50   51 1
    59   51   52 1
    60   52   53 1
    61   53   54 1
    62   53   55 1
    63   57   58 1
    64   57   66 1
    65   58   59 1
    66   59   60 1
    67   59   84 1
    68   60   61 1
    69   61   62 1
    70   61   66 1
    71   62   63 1
    72   63   64 1
    73   64   65 1
    74   64   70 1
    75   65   66 1
    76   65   67 1
    77   66   75 1
    78   67   68 1
    79   68   69 1
    80   69   70 1
    81   69   73 1
    82   69   74 1
    83   70   71 1
    84   71   72 1
    85   72   73 1
    86   73   76 1
    87   76   77 1
    88   76   78 1
    89   78   79 1
    90   79   80 1
    91   80   81 1
    92   81   82 1
    93   81   83 1
@<TRIPOS>SUBSTRUCTURE
     1 CLR521      1 RESIDUE           4 R     CLR     0 ROOT
     2 CLR522     29 RESIDUE           4 R     CLR     0 ROOT
     3 CLR523     57 RESIDUE           4 R     CLR     0 ROOT
