@<TRIPOS>MOLECULE
CLR
28 31 1 0 0
SMALL
NO_CHARGES


@<TRIPOS>ATOM
      1 C1         81.5280  121.7360   90.8650 C.3       1 CLR477      0.0000
      2 C2         80.9680  122.2910   89.5340 C.3       1 CLR477      0.0000
      3 C3         80.3580  121.2640   88.5650 C.3       1 CLR477      0.0000
      4 C4         80.3650  119.8470   89.1390 C.3       1 CLR477      0.0000
      5 C5         80.0920  119.7540   90.6140 C.2       1 CLR477      0.0000
      6 C6         79.4310  118.6930   91.0910 C.2       1 CLR477      0.0000
      7 C7         79.5370  118.2180   92.5060 C.3       1 CLR477      0.0000
      8 C8         80.3040  119.0890   93.5150 C.3       1 CLR477      0.0000
      9 C9         81.3240  119.9840   92.7740 C.3       1 CLR477      0.0000
     10 C10        80.5930  120.7460   91.5960 C.3       1 CLR477      0.0000
     11 C11        82.2000  120.8400   93.7220 C.3       1 CLR477      0.0000
     12 C12        82.6680  120.2000   95.0800 C.3       1 CLR477      0.0000
     13 C13        81.6500  119.2680   95.7560 C.3       1 CLR477      0.0000
     14 C14        81.1050  118.3510   94.6070 C.3       1 CLR477      0.0000
     15 C15        80.3500  117.2180   95.3560 C.3       1 CLR477      0.0000
     16 C16        80.9800  117.1910   96.7790 C.3       1 CLR477      0.0000
     17 C17        82.1210  118.2460   96.8600 C.3       1 CLR477      0.0000
     18 C18        80.6430  120.2130   96.3770 C.3       1 CLR477      0.0000
     19 C19        79.3860  121.5580   92.1610 C.3       1 CLR477      0.0000
     20 C20        82.3550  118.8050   98.3360 C.3       1 CLR477      0.0000
     21 C21        83.4120  119.9170   98.2920 C.3       1 CLR477      0.0000
     22 C22        82.7700  117.6820   99.3430 C.3       1 CLR477      0.0000
     23 C23        82.8790  118.0990  100.8500 C.3       1 CLR477      0.0000
     24 C24        82.9340  116.9000  101.8610 C.3       1 CLR477      0.0000
     25 C25        83.2580  117.2740  103.3540 C.3       1 CLR477      0.0000
     26 C26        82.7270  116.2290  104.3550 C.3       1 CLR477      0.0000
     27 C27        84.7760  117.4150  103.6070 C.3       1 CLR477      0.0000
     28 O1         79.0110  121.5870   88.2920 O.3       1 CLR477      0.0000
@<TRIPOS>BOND
     1    1    2 1
     2    1   10 1
     3    2    3 1
     4    3    4 1
     5    3   28 1
     6    4    5 1
     7    5    6 2
     8    5   10 1
     9    6    7 1
    10    7    8 1
    11    8    9 1
    12    8   14 1
    13    9   10 1
    14    9   11 1
    15   10   19 1
    16   11   12 1
    17   12   13 1
    18   13   14 1
    19   13   17 1
    20   13   18 1
    21   14   15 1
    22   15   16 1
    23   16   17 1
    24   17   20 1
    25   20   21 1
    26   20   22 1
    27   22   23 1
    28   23   24 1
    29   24   25 1
    30   25   26 1
    31   25   27 1
@<TRIPOS>SUBSTRUCTURE
     1 CLR477      1 RESIDUE           4 R     CLR     0 ROOT
