@<TRIPOS>MOLECULE
CLR
168 186 6 0 0
SMALL
NO_CHARGES


@<TRIPOS>ATOM
      1 C1         74.9540  121.0490   76.9060 C.3       1 CLR452      0.0000
      2 C2         74.9370  121.3190   75.3990 C.3       1 CLR452      0.0000
      3 C3         75.6680  122.6270   75.1140 C.3       1 CLR452      0.0000
      4 C4         77.1470  122.4250   75.4460 C.3       1 CLR452      0.0000
      5 C5         77.2710  121.9990   76.8990 C.2       1 CLR452      0.0000
      6 C6         78.1480  122.6170   77.6370 C.2       1 CLR452      0.0000
      7 C7         78.3920  122.3140   79.0890 C.3       1 CLR452      0.0000
      8 C8         77.8240  120.9430   79.4810 C.3       1 CLR452      0.0000
      9 C9         76.3900  120.8360   78.9390 C.3       1 CLR452      0.0000
     10 C10        76.3930  120.8980   77.4170 C.3       1 CLR452      0.0000
     11 C11        75.6700  119.5850   79.4490 C.3       1 CLR452      0.0000
     12 C12        75.7430  119.4600   80.9790 C.3       1 CLR452      0.0000
     13 C13        77.1920  119.5120   81.4840 C.3       1 CLR452      0.0000
     14 C14        77.7890  120.8710   81.0040 C.3       1 CLR452      0.0000
     15 C15        79.1480  120.9020   81.7170 C.3       1 CLR452      0.0000
     16 C16        78.7950  120.3490   83.1250 C.3       1 CLR452      0.0000
     17 C17        77.4400  119.5870   83.0020 C.3       1 CLR452      0.0000
     18 C18        78.0160  118.3660   80.8820 C.3       1 CLR452      0.0000
     19 C19        76.9660  119.5820   76.8760 C.3       1 CLR452      0.0000
     20 C20        77.4400  118.2110   83.7190 C.3       1 CLR452      0.0000
     21 C21        76.0340  117.9090   84.2580 C.3       1 CLR452      0.0000
     22 C22        78.4340  118.1490   84.8930 C.3       1 CLR452      0.0000
     23 C23        78.3000  116.8380   85.6740 C.3       1 CLR452      0.0000
     24 C24        79.0790  116.9360   86.9860 C.3       1 CLR452      0.0000
     25 C25        78.6920  115.7620   87.8880 C.3       1 CLR452      0.0000
     26 C26        79.3410  115.9400   89.2600 C.3       1 CLR452      0.0000
     27 C27        79.1560  114.4450   87.2630 C.3       1 CLR452      0.0000
     28 O1         75.5280  122.9640   73.7320 O.3       1 CLR452      0.0000
     29 C1         63.9180  107.0290   77.7380 C.3       2 CLR453      0.0000
     30 C2         63.1520  107.2430   76.4300 C.3       2 CLR453      0.0000
     31 C3         62.1130  108.3420   76.6340 C.3       2 CLR453      0.0000
     32 C4         62.8570  109.6610   76.8480 C.3       2 CLR453      0.0000
     33 C5         63.7730  109.5110   78.0530 C.2       2 CLR453      0.0000
     34 C6         63.7490  110.4480   78.9580 C.2       2 CLR453      0.0000
     35 C7         64.5930  110.4430   80.2030 C.3       2 CLR453      0.0000
     36 C8         65.7670  109.4600   80.0940 C.3       2 CLR453      0.0000
     37 C9         65.2310  108.1270   79.5520 C.3       2 CLR453      0.0000
     38 C10        64.6610  108.3060   78.1510 C.3       2 CLR453      0.0000
     39 C11        66.2830  107.0180   79.5940 C.3       2 CLR453      0.0000
     40 C12        66.8650  106.8610   81.0060 C.3       2 CLR453      0.0000
     41 C13        67.4620  108.1790   81.5230 C.3       2 CLR453      0.0000
     42 C14        66.3090  109.2330   81.5020 C.3       2 CLR453      0.0000
     43 C15        66.9590  110.4440   82.1810 C.3       2 CLR453      0.0000
     44 C16        67.7070  109.7710   83.3630 C.3       2 CLR453      0.0000
     45 C17        67.9070  108.2670   82.9980 C.3       2 CLR453      0.0000
     46 C18        68.5950  108.6440   80.5950 C.3       2 CLR453      0.0000
     47 C19        65.8250  108.5300   77.1790 C.3       2 CLR453      0.0000
     48 C20        69.3530  107.7910   83.3010 C.3       2 CLR453      0.0000
     49 C21        69.4070  106.2700   83.5080 C.3       2 CLR453      0.0000
     50 C22        69.9020  108.4340   84.5860 C.3       2 CLR453      0.0000
     51 C23        71.3160  107.9410   84.9080 C.3       2 CLR453      0.0000
     52 C24        71.7170  108.4200   86.3060 C.3       2 CLR453      0.0000
     53 C25        73.0850  107.8480   86.6930 C.3       2 CLR453      0.0000
     54 C26        73.4550  108.3310   88.0960 C.3       2 CLR453      0.0000
     55 C27        73.0340  106.3180   86.6890 C.3       2 CLR453      0.0000
     56 O1         61.2830  108.4370   75.4740 O.3       2 CLR453      0.0000
     57 C1        116.9210  120.1560   95.2810 C.3       3 CLR454      0.0000
     58 C2        117.3590  120.8690   96.5630 C.3       3 CLR454      0.0000
     59 C3        116.8390  122.3030   96.5550 C.3       3 CLR454      0.0000
     60 C4        115.3130  122.2580   96.6410 C.3       3 CLR454      0.0000
     61 C5        114.7820  121.4490   95.4670 C.2       3 CLR454      0.0000
     62 C6        113.8100  121.9570   94.7670 C.2       3 CLR454      0.0000
     63 C7        113.1870  121.2710   93.5840 C.3       3 CLR454      0.0000
     64 C8        113.4910  119.7660   93.5930 C.3       3 CLR454      0.0000
     65 C9        114.9980  119.5730   93.8010 C.3       3 CLR454      0.0000
     66 C10       115.3910  120.1100   95.1690 C.3       3 CLR454      0.0000
     67 C11       115.4270  118.1100   93.6310 C.3       3 CLR454      0.0000
     68 C12       114.8850  117.4710   92.3430 C.3       3 CLR454      0.0000
     69 C13       113.3700  117.6600   92.1780 C.3       3 CLR454      0.0000
     70 C14       113.1230  119.2000   92.2280 C.3       3 CLR454      0.0000
     71 C15       111.6540  119.3160   91.8180 C.3       3 CLR454      0.0000
     72 C16       111.6200  118.3500   90.6070 C.3       3 CLR454      0.0000
     73 C17       112.7580  117.3020   90.8070 C.3       3 CLR454      0.0000
     74 C18       112.5940  117.0100   93.3380 C.3       3 CLR454      0.0000
     75 C19       114.8320  119.1390   96.2120 C.3       3 CLR454      0.0000
     76 C20       112.2030  115.8650   90.6190 C.3       3 CLR454      0.0000
     77 C21       113.2840  114.7800   90.5110 C.3       3 CLR454      0.0000
     78 C22       111.4580  115.7720   89.2840 C.3       3 CLR454      0.0000
     79 C23       110.0190  115.2820   89.4480 C.3       3 CLR454      0.0000
     80 C24       109.4330  115.0910   88.0490 C.3       3 CLR454      0.0000
     81 C25       107.9260  115.3390   88.0830 C.3       3 CLR454      0.0000
     82 C26       107.6850  116.8200   88.3790 C.3       3 CLR454      0.0000
     83 C27       107.3180  114.9850   86.7250 C.3       3 CLR454      0.0000
     84 O1        117.3640  123.0070   97.6840 O.3       3 CLR454      0.0000
     85 C1         72.3920   94.9010   77.3870 C.3       4 CLR455      0.0000
     86 C2         71.4720   95.7660   76.5180 C.3       4 CLR455      0.0000
     87 C3         70.7500   96.7940   77.3870 C.3       4 CLR455      0.0000
     88 C4         71.7980   97.7590   77.9450 C.3       4 CLR455      0.0000
     89 C5         72.8240   96.9530   78.7250 C.2       4 CLR455      0.0000
     90 C6         73.1000   97.3470   79.9330 C.2       4 CLR455      0.0000
     91 C7         74.0890   96.6590   80.8280 C.3       4 CLR455      0.0000
     92 C8         75.0640   95.8060   80.0090 C.3       4 CLR455      0.0000
     93 C9         74.2650   94.9060   79.0550 C.3       4 CLR455      0.0000
     94 C10        73.4630   95.7590   78.0730 C.3       4 CLR455      0.0000
     95 C11        75.1690   93.8780   78.3570 C.3       4 CLR455      0.0000
     96 C12        76.0530   93.0860   79.3430 C.3       4 CLR455      0.0000
     97 C13        76.8560   94.0160   80.2640 C.3       4 CLR455      0.0000
     98 C14        75.8120   94.9190   80.9920 C.3       4 CLR455      0.0000
     99 C15        76.6650   95.6470   82.0330 C.3       4 CLR455      0.0000
    100 C16        77.4930   94.4660   82.5950 C.3       4 CLR455      0.0000
    101 C17        77.6120   93.4000   81.4610 C.3       4 CLR455      0.0000
    102 C18        77.7890   94.8960   79.4220 C.3       4 CLR455      0.0000
    103 C19        74.4180   96.2960   76.9980 C.3       4 CLR455      0.0000
    104 C20        79.0890   93.0170   81.1790 C.3       4 CLR455      0.0000
    105 C21        79.1830   91.5880   80.6360 C.3       4 CLR455      0.0000
    106 C22        79.9610   93.1140   82.4410 C.3       4 CLR455      0.0000
    107 C23        81.4220   93.3890   82.0850 C.3       4 CLR455      0.0000
    108 C24        82.1310   94.0040   83.2970 C.3       4 CLR455      0.0000
    109 C25        82.1010   93.0800   84.5160 C.3       4 CLR455      0.0000
    110 C26        82.6620   93.8400   85.7190 C.3       4 CLR455      0.0000
    111 C27        82.9890   91.8620   84.2510 C.3       4 CLR455      0.0000
    112 O1         69.8060   97.5180   76.5950 O.3       4 CLR455      0.0000
    113 C1        115.4140  110.7410   58.0290 C.3       5 CLR456      0.0000
    114 C2        114.9850  111.1180   56.6080 C.3       5 CLR456      0.0000
    115 C3        116.0650  110.6860   55.6200 C.3       5 CLR456      0.0000
    116 C4        116.1170  109.1570   55.6130 C.3       5 CLR456      0.0000
    117 C5        116.4030  108.6770   57.0280 C.2       5 CLR456      0.0000
    118 C6        117.3530  107.8020   57.1900 C.2       5 CLR456      0.0000
    119 C7        117.7540  107.2310   58.5220 C.3       5 CLR456      0.0000
    120 C8        116.6650  107.4390   59.5830 C.3       5 CLR456      0.0000
    121 C9        116.1970  108.8990   59.5230 C.3       5 CLR456      0.0000
    122 C10       115.5880  109.2220   58.1630 C.3       5 CLR456      0.0000
    123 C11       115.2510  109.2450   60.6750 C.3       5 CLR456      0.0000
    124 C12       115.8920  108.9180   62.0330 C.3       5 CLR456      0.0000
    125 C13       116.3220  107.4450   62.1250 C.3       5 CLR456      0.0000
    126 C14       117.3120  107.1970   60.9410 C.3       5 CLR456      0.0000
    127 C15       117.7970  105.7680   61.2080 C.3       5 CLR456      0.0000
    128 C16       118.0580  105.8280   62.7350 C.3       5 CLR456      0.0000
    129 C17       117.1930  106.9890   63.3180 C.3       5 CLR456      0.0000
    130 C18       115.0980  106.5310   61.9670 C.3       5 CLR456      0.0000
    131 C19       114.2070  108.5610   58.0770 C.3       5 CLR456      0.0000
    132 C20       116.4480  106.5260   64.6000 C.3       5 CLR456      0.0000
    133 C21       115.9540  107.7150   65.4390 C.3       5 CLR456      0.0000
    134 C22       117.3800  105.6810   65.4910 C.3       5 CLR456      0.0000
    135 C23       116.7590  105.3320   66.8480 C.3       5 CLR456      0.0000
    136 C24       117.7320  104.4890   67.6750 C.3       5 CLR456      0.0000
    137 C25       117.0900  104.1210   69.0160 C.3       5 CLR456      0.0000
    138 C26       118.0440  103.2330   69.8160 C.3       5 CLR456      0.0000
    139 C27       116.7870  105.3880   69.8180 C.3       5 CLR456      0.0000
    140 O1        115.7370  111.1620   54.3120 O.3       5 CLR456      0.0000
    141 C1         81.0750   93.9480  104.9020 C.3       6 CLR457      0.0000
    142 C2         82.0850   93.1090  105.6900 C.3       6 CLR457      0.0000
    143 C3         82.3820   91.8180  104.9310 C.3       6 CLR457      0.0000
    144 C4         83.0980   92.1840  103.6290 C.3       6 CLR457      0.0000
    145 C5         82.2230   93.1440  102.8350 C.2       6 CLR457      0.0000
    146 C6         82.0190   92.8860  101.5760 C.2       6 CLR457      0.0000
    147 C7         81.1800   93.7400  100.6660 C.3       6 CLR457      0.0000
    148 C8         80.9780   95.1500  101.2360 C.3       6 CLR457      0.0000
    149 C9         80.5570   95.0290  102.7080 C.3       6 CLR457      0.0000
    150 C10        81.6410   94.3380  103.5300 C.3       6 CLR457      0.0000
    151 C11        80.1630   96.3840  103.3070 C.3       6 CLR457      0.0000
    152 C12        79.1190   97.1200  102.4510 C.3       6 CLR457      0.0000
    153 C13        79.5680   97.2530  100.9900 C.3       6 CLR457      0.0000
    154 C14        79.8420   95.8100  100.4600 C.3       6 CLR457      0.0000
    155 C15        80.0870   96.0540   98.9650 C.3       6 CLR457      0.0000
    156 C16        78.9930   97.1020   98.6220 C.3       6 CLR457      0.0000
    157 C17        78.5410   97.7600   99.9610 C.3       6 CLR457      0.0000
    158 C18        80.8640   98.0720  100.8940 C.3       6 CLR457      0.0000
    159 C19        82.8040   95.3150  103.7380 C.3       6 CLR457      0.0000
    160 C20        78.4330   99.3050   99.8800 C.3       6 CLR457      0.0000
    161 C21        77.2910   99.8110  100.7700 C.3       6 CLR457      0.0000
    162 C22        78.1660   99.8190   98.4570 C.3       6 CLR457      0.0000
    163 C23        78.2690  101.3450   98.4260 C.3       6 CLR457      0.0000
    164 C24        78.0760  101.8570   96.9960 C.3       6 CLR457      0.0000
    165 C25        78.3250  103.3680   96.9360 C.3       6 CLR457      0.0000
    166 C26        78.1570  103.8580   95.4980 C.3       6 CLR457      0.0000
    167 C27        77.3350  104.1060   97.8410 C.3       6 CLR457      0.0000
    168 O1         83.2270   90.9830  105.7260 O.3       6 CLR457      0.0000
@<TRIPOS>BOND
     1    1    2 1
     2    1   10 1
     3    2    3 1
     4    3    4 1
     5    3   28 1
     6    4    5 1
     7    5    6 2
     8    5   10 1
     9    6    7 1
    10    7    8 1
    11    8    9 1
    12    8   14 1
    13    9   10 1
    14    9   11 1
    15   10   19 1
    16   11   12 1
    17   12   13 1
    18   13   14 1
    19   13   17 1
    20   13   18 1
    21   14   15 1
    22   15   16 1
    23   16   17 1
    24   17   20 1
    25   20   21 1
    26   20   22 1
    27   22   23 1
    28   23   24 1
    29   24   25 1
    30   25   26 1
    31   25   27 1
    32   29   30 1
    33   29   38 1
    34   30   31 1
    35   31   32 1
    36   31   56 1
    37   32   33 1
    38   33   34 2
    39   33   38 1
    40   34   35 1
    41   35   36 1
    42   36   37 1
    43   36   42 1
    44   37   38 1
    45   37   39 1
    46   38   47 1
    47   39   40 1
    48   40   41 1
    49   41   42 1
    50   41   45 1
    51   41   46 1
    52   42   43 1
    53   43   44 1
    54   44   45 1
    55   45   48 1
    56   48   49 1
    57   48   50 1
    58   50   51 1
    59   51   52 1
    60   52   53 1
    61   53   54 1
    62   53   55 1
    63   57   58 1
    64   57   66 1
    65   58   59 1
    66   59   60 1
    67   59   84 1
    68   60   61 1
    69   61   62 2
    70   61   66 1
    71   62   63 1
    72   63   64 1
    73   64   65 1
    74   64   70 1
    75   65   66 1
    76   65   67 1
    77   66   75 1
    78   67   68 1
    79   68   69 1
    80   69   70 1
    81   69   73 1
    82   69   74 1
    83   70   71 1
    84   71   72 1
    85   72   73 1
    86   73   76 1
    87   76   77 1
    88   76   78 1
    89   78   79 1
    90   79   80 1
    91   80   81 1
    92   81   82 1
    93   81   83 1
    94   85   86 1
    95   85   94 1
    96   86   87 1
    97   87   88 1
    98   87  112 1
    99   88   89 1
   100   89   90 2
   101   89   94 1
   102   90   91 1
   103   91   92 1
   104   92   93 1
   105   92   98 1
   106   93   94 1
   107   93   95 1
   108   94  103 1
   109   95   96 1
   110   96   97 1
   111   97   98 1
   112   97  101 1
   113   97  102 1
   114   98   99 1
   115   99  100 1
   116  100  101 1
   117  101  104 1
   118  104  105 1
   119  104  106 1
   120  106  107 1
   121  107  108 1
   122  108  109 1
   123  109  110 1
   124  109  111 1
   125  113  114 1
   126  113  122 1
   127  114  115 1
   128  115  116 1
   129  115  140 1
   130  116  117 1
   131  117  118 2
   132  117  122 1
   133  118  119 1
   134  119  120 1
   135  120  121 1
   136  120  126 1
   137  121  122 1
   138  121  123 1
   139  122  131 1
   140  123  124 1
   141  124  125 1
   142  125  126 1
   143  125  129 1
   144  125  130 1
   145  126  127 1
   146  127  128 1
   147  128  129 1
   148  129  132 1
   149  132  133 1
   150  132  134 1
   151  134  135 1
   152  135  136 1
   153  136  137 1
   154  137  138 1
   155  137  139 1
   156  141  142 1
   157  141  150 1
   158  142  143 1
   159  143  144 1
   160  143  168 1
   161  144  145 1
   162  145  146 2
   163  145  150 1
   164  146  147 1
   165  147  148 1
   166  148  149 1
   167  148  154 1
   168  149  150 1
   169  149  151 1
   170  150  159 1
   171  151  152 1
   172  152  153 1
   173  153  154 1
   174  153  157 1
   175  153  158 1
   176  154  155 1
   177  155  156 1
   178  156  157 1
   179  157  160 1
   180  160  161 1
   181  160  162 1
   182  162  163 1
   183  163  164 1
   184  164  165 1
   185  165  166 1
   186  165  167 1
@<TRIPOS>SUBSTRUCTURE
     1 CLR452      1 RESIDUE           4 R     CLR     0 ROOT
     2 CLR453     29 RESIDUE           4 R     CLR     0 ROOT
     3 CLR454     57 RESIDUE           4 R     CLR     0 ROOT
     4 CLR455     85 RESIDUE           4 R     CLR     0 ROOT
     5 CLR456    113 RESIDUE           4 R     CLR     0 ROOT
     6 CLR457    141 RESIDUE           4 R     CLR     0 ROOT
