@<TRIPOS>MOLECULE
CLR
168 186 6 0 0
SMALL
NO_CHARGES


@<TRIPOS>ATOM
      1 C1         95.9960   69.3990  110.4390 C.3       1 CLR452      0.0000
      2 C2         96.8000   68.4850  111.3690 C.3       1 CLR452      0.0000
      3 C3         97.8910   67.7720  110.5730 C.3       1 CLR452      0.0000
      4 C4         98.8900   68.8250  110.0900 C.3       1 CLR452      0.0000
      5 C5         98.1420   69.8510  109.2540 C.2       1 CLR452      0.0000
      6 C6         98.6230   70.1480  108.0810 C.2       1 CLR452      0.0000
      7 C7         97.9980   71.1400  107.1410 C.3       1 CLR452      0.0000
      8 C8         97.0280   72.0790  107.8690 C.3       1 CLR452      0.0000
      9 C9         96.1010   71.2480  108.7680 C.3       1 CLR452      0.0000
     10 C10        96.8960   70.4720  109.8130 C.3       1 CLR452      0.0000
     11 C11        95.0050   72.1120  109.4030 C.3       1 CLR452      0.0000
     12 C12        94.2300   72.9230  108.3520 C.3       1 CLR452      0.0000
     13 C13        95.1590   73.7600  107.4600 C.3       1 CLR452      0.0000
     14 C14        96.1630   72.7560  106.8120 C.3       1 CLR452      0.0000
     15 C15        96.8940   73.6300  105.7880 C.3       1 CLR452      0.0000
     16 C16        95.7020   74.3940  105.1540 C.3       1 CLR452      0.0000
     17 C17        94.5520   74.4290  106.2080 C.3       1 CLR452      0.0000
     18 C18        95.9540   74.7700  108.3040 C.3       1 CLR452      0.0000
     19 C19        97.3450   71.4430  110.9140 C.3       1 CLR452      0.0000
     20 C20        94.0160   75.8750  106.3760 C.3       1 CLR452      0.0000
     21 C21        92.6570   75.9380  107.0840 C.3       1 CLR452      0.0000
     22 C22        93.7690   76.5160  105.0060 C.3       1 CLR452      0.0000
     23 C23        94.4800   77.8630  104.8860 C.3       1 CLR452      0.0000
     24 C24        94.1280   78.4700  103.5270 C.3       1 CLR452      0.0000
     25 C25        95.0680   79.6360  103.2230 C.3       1 CLR452      0.0000
     26 C26        96.4920   79.0910  103.1070 C.3       1 CLR452      0.0000
     27 C27        94.6590   80.2840  101.8990 C.3       1 CLR452      0.0000
     28 O1         98.5550   66.8250  111.4140 O.3       1 CLR452      0.0000
     29 C1         85.9870   76.3550  119.3720 C.3       2 CLR453      0.0000
     30 C2         86.4650   75.0120  119.9290 C.3       2 CLR453      0.0000
     31 C3         86.6690   74.0330  118.7760 C.3       2 CLR453      0.0000
     32 C4         87.8390   74.5310  117.9250 C.3       2 CLR453      0.0000
     33 C5         87.5420   75.9450  117.4470 C.2       2 CLR453      0.0000
     34 C6         87.7390   76.2220  116.1900 C.2       2 CLR453      0.0000
     35 C7         87.4900   77.5740  115.5810 C.3       2 CLR453      0.0000
     36 C8         87.4420   78.6650  116.6600 C.3       2 CLR453      0.0000
     37 C9         86.4760   78.2000  117.7580 C.3       2 CLR453      0.0000
     38 C10        87.0410   76.9590  118.4340 C.3       2 CLR453      0.0000
     39 C11        86.1720   79.3030  118.7770 C.3       2 CLR453      0.0000
     40 C12        85.7610   80.6250  118.1070 C.3       2 CLR453      0.0000
     41 C13        86.7950   81.0950  117.0740 C.3       2 CLR453      0.0000
     42 C14        86.9040   79.9430  116.0260 C.3       2 CLR453      0.0000
     43 C15        87.7730   80.5740  114.9350 C.3       2 CLR453      0.0000
     44 C16        87.1340   81.9820  114.8180 C.3       2 CLR453      0.0000
     45 C17        86.4350   82.2980  116.1760 C.3       2 CLR453      0.0000
     46 C18        88.1710   81.2980  117.7360 C.3       2 CLR453      0.0000
     47 C19        88.2600   77.3850  119.2560 C.3       2 CLR453      0.0000
     48 C20        86.8590   83.6920  116.7170 C.3       2 CLR453      0.0000
     49 C21        85.8840   84.2430  117.7760 C.3       2 CLR453      0.0000
     50 C22        87.0240   84.7280  115.5830 C.3       2 CLR453      0.0000
     51 C23        85.7090   85.3990  115.1630 C.3       2 CLR453      0.0000
     52 C24        85.9810   86.3850  114.0260 C.3       2 CLR453      0.0000
     53 C25        84.7440   87.2390  113.7420 C.3       2 CLR453      0.0000
     54 C26        84.4020   88.0710  114.9790 C.3       2 CLR453      0.0000
     55 C27        85.0410   88.1790  112.5720 C.3       2 CLR453      0.0000
     56 O1         86.9760   72.7390  119.3020 O.3       2 CLR453      0.0000
     57 C1         94.6970   84.7680   87.4840 C.3       3 CLR454      0.0000
     58 C2         93.7620   85.4720   86.4960 C.3       3 CLR454      0.0000
     59 C3         92.3190   85.0610   86.7780 C.3       3 CLR454      0.0000
     60 C4         91.9270   85.6160   88.1490 C.3       3 CLR454      0.0000
     61 C5         92.8990   85.0820   89.1900 C.2       3 CLR454      0.0000
     62 C6         92.4020   84.5620   90.2750 C.2       3 CLR454      0.0000
     63 C7         93.2350   83.9950   91.3910 C.3       3 CLR454      0.0000
     64 C8         94.6750   84.5210   91.3320 C.3       3 CLR454      0.0000
     65 C9         95.1980   84.3440   89.8980 C.3       3 CLR454      0.0000
     66 C10        94.3730   85.1800   88.9270 C.3       3 CLR454      0.0000
     67 C11        96.6940   84.6530   89.7910 C.3       3 CLR454      0.0000
     68 C12        97.5200   83.8870   90.8380 C.3       3 CLR454      0.0000
     69 C13        97.0130   84.1320   92.2690 C.3       3 CLR454      0.0000
     70 C14        95.5200   83.6750   92.2790 C.3       3 CLR454      0.0000
     71 C15        95.1590   83.7600   93.7660 C.3       3 CLR454      0.0000
     72 C16        96.4180   83.1420   94.4290 C.3       3 CLR454      0.0000
     73 C17        97.6010   83.2910   93.4220 C.3       3 CLR454      0.0000
     74 C18        97.0790   85.6270   92.6140 C.3       3 CLR454      0.0000
     75 C19        94.7550   86.6530   89.1100 C.3       3 CLR454      0.0000
     76 C20        98.8750   83.8660   94.1040 C.3       3 CLR454      0.0000
     77 C21       100.1310   83.4700   93.3100 C.3       3 CLR454      0.0000
     78 C22        99.0130   83.3780   95.5640 C.3       3 CLR454      0.0000
     79 C23       100.4300   83.5110   96.1410 C.3       3 CLR454      0.0000
     80 C24       100.5010   82.8650   97.5270 C.3       3 CLR454      0.0000
     81 C25       101.9640   82.7190   97.9610 C.3       3 CLR454      0.0000
     82 C26       102.6440   84.0840   98.0620 C.3       3 CLR454      0.0000
     83 C27       102.0390   82.0120   99.3150 C.3       3 CLR454      0.0000
     84 O1         91.4600   85.6080   85.7750 O.3       3 CLR454      0.0000
     85 C1        118.9890   92.0630  129.0680 C.3       4 CLR455      0.0000
     86 C2        118.9410   91.0060  130.1780 C.3       4 CLR455      0.0000
     87 C3        118.1450   91.5270  131.3730 C.3       4 CLR455      0.0000
     88 C4        116.6960   91.7190  130.9250 C.3       4 CLR455      0.0000
     89 C5        116.6850   92.6820  129.7480 C.2       4 CLR455      0.0000
     90 C6        115.8890   93.7080  129.8230 C.2       4 CLR455      0.0000
     91 C7        115.7620   94.7470  128.7480 C.3       4 CLR455      0.0000
     92 C8        116.2670   94.2220  127.4000 C.3       4 CLR455      0.0000
     93 C9        117.6460   93.5730  127.5890 C.3       4 CLR455      0.0000
     94 C10       117.5780   92.4060  128.5730 C.3       4 CLR455      0.0000
     95 C11       118.2720   93.1860  126.2430 C.3       4 CLR455      0.0000
     96 C12       118.3200   94.3710  125.2610 C.3       4 CLR455      0.0000
     97 C13       116.9400   95.0210  125.0770 C.3       4 CLR455      0.0000
     98 C14       116.4440   95.4340  126.4970 C.3       4 CLR455      0.0000
     99 C15       115.1740   96.2280  126.1860 C.3       4 CLR455      0.0000
    100 C16       115.6580   97.1130  125.0100 C.3       4 CLR455      0.0000
    101 C17       116.8550   96.3730  124.3380 C.3       4 CLR455      0.0000
    102 C18       115.9560   94.0050  124.4770 C.3       4 CLR455      0.0000
    103 C19       117.0070   91.1790  127.8490 C.3       4 CLR455      0.0000
    104 C20       116.6940   96.2750  122.7990 C.3       4 CLR455      0.0000
    105 C21       118.0670   96.2330  122.1200 C.3       4 CLR455      0.0000
    106 C22       115.9250   97.4760  122.2210 C.3       4 CLR455      0.0000
    107 C23       115.7550   97.3740  120.7040 C.3       4 CLR455      0.0000
    108 C24       114.9980   98.6120  120.2150 C.3       4 CLR455      0.0000
    109 C25       114.8790   98.5960  118.6890 C.3       4 CLR455      0.0000
    110 C26       114.0610   99.8030  118.2270 C.3       4 CLR455      0.0000
    111 C27       116.2720   98.6580  118.0590 C.3       4 CLR455      0.0000
    112 O1        118.1950   90.5710  132.4350 O.3       4 CLR455      0.0000
    113 C1        112.8430   95.2600  131.3970 C.3       5 CLR456      0.0000
    114 C2        112.8460   94.1200  132.4190 C.3       5 CLR456      0.0000
    115 C3        111.9020   94.4680  133.5660 C.3       5 CLR456      0.0000
    116 C4        110.4750   94.4810  133.0180 C.3       5 CLR456      0.0000
    117 C5        110.3970   95.4900  131.8830 C.2       5 CLR456      0.0000
    118 C6        109.4150   96.3450  131.8960 C.2       5 CLR456      0.0000
    119 C7        109.2060   97.3990  130.8450 C.3       5 CLR456      0.0000
    120 C8        109.9790   97.0660  129.5630 C.3       5 CLR456      0.0000
    121 C9        111.4240   96.7140  129.9480 C.3       5 CLR456      0.0000
    122 C10       111.4410   95.4570  130.8060 C.3       5 CLR456      0.0000
    123 C11       112.3300   96.5760  128.7200 C.3       5 CLR456      0.0000
    124 C12       112.2200   97.7860  127.7760 C.3       5 CLR456      0.0000
    125 C13       110.7700   98.0590  127.3560 C.3       5 CLR456      0.0000
    126 C14       109.9900   98.3120  128.6840 C.3       5 CLR456      0.0000
    127 C15       108.6310   98.8010  128.1760 C.3       5 CLR456      0.0000
    128 C16       109.0670   99.7980  127.0720 C.3       5 CLR456      0.0000
    129 C17       110.4710   99.3480  126.5610 C.3       5 CLR456      0.0000
    130 C18       110.1710   96.8260  126.6620 C.3       5 CLR456      0.0000
    131 C19       111.1090   94.2560  129.9120 C.3       5 CLR456      0.0000
    132 C20       110.4810   99.2280  125.0140 C.3       5 CLR456      0.0000
    133 C21       111.9010   99.2050  124.4320 C.3       5 CLR456      0.0000
    134 C22       109.8070  100.4420  124.3630 C.3       5 CLR456      0.0000
    135 C23       108.6700  100.0290  123.4260 C.3       5 CLR456      0.0000
    136 C24       108.1430  101.2840  122.7260 C.3       5 CLR456      0.0000
    137 C25       106.6150  101.3310  122.8010 C.3       5 CLR456      0.0000
    138 C26       106.1870  101.4770  124.2620 C.3       5 CLR456      0.0000
    139 C27       106.1020  102.5290  122.0000 C.3       5 CLR456      0.0000
    140 O1        112.0140   93.4820  134.5940 O.3       5 CLR456      0.0000
    141 C1        106.3820  112.1960  109.4770 C.3       6 CLR457      0.0000
    142 C2        106.0930  113.0210  108.2200 C.3       6 CLR457      0.0000
    143 C3        107.2760  112.9310  107.2600 C.3       6 CLR457      0.0000
    144 C4        107.3950  111.4820  106.7820 C.3       6 CLR457      0.0000
    145 C5        107.5340  110.5650  107.9860 C.2       6 CLR457      0.0000
    146 C6        108.4920  109.6830  107.9740 C.2       6 CLR457      0.0000
    147 C7        108.7390  108.7170  109.0960 C.3       6 CLR457      0.0000
    148 C8        107.4650  108.5470  109.9330 C.3       6 CLR457      0.0000
    149 C9        106.9850  109.9390  110.3640 C.3       6 CLR457      0.0000
    150 C10       106.5660  110.7150  109.1230 C.3       6 CLR457      0.0000
    151 C11       105.8560  109.8730  111.4020 C.3       6 CLR457      0.0000
    152 C12       106.1290  108.8810  112.5480 C.3       6 CLR457      0.0000
    153 C13       106.5290  107.4900  112.0370 C.3       6 CLR457      0.0000
    154 C14       107.8030  107.7240  111.1690 C.3       6 CLR457      0.0000
    155 C15       108.2880  106.3000  110.9040 C.3       6 CLR457      0.0000
    156 C16       108.1190  105.6450  112.2990 C.3       6 CLR457      0.0000
    157 C17       107.0290  106.4530  113.0660 C.3       6 CLR457      0.0000
    158 C18       105.4230  106.8870  111.1500 C.3       6 CLR457      0.0000
    159 C19       105.2330  110.1370  108.6300 C.3       6 CLR457      0.0000
    160 C20       105.9270  105.5270  113.6520 C.3       6 CLR457      0.0000
    161 C21       105.1850  106.1920  114.8260 C.3       6 CLR457      0.0000
    162 C22       106.4670  104.1450  114.0830 C.3       6 CLR457      0.0000
    163 C23       107.0600  104.1330  115.4980 C.3       6 CLR457      0.0000
    164 C24       107.5430  102.7260  115.8540 C.3       6 CLR457      0.0000
    165 C25       108.0410  102.7100  117.3020 C.3       6 CLR457      0.0000
    166 C26       106.8850  103.0280  118.2520 C.3       6 CLR457      0.0000
    167 C27       108.6120  101.3320  117.6380 C.3       6 CLR457      0.0000
    168 O1        107.0400  113.7870  106.1400 O.3       6 CLR457      0.0000
@<TRIPOS>BOND
     1    1    2 1
     2    1   10 1
     3    2    3 1
     4    3    4 1
     5    3   28 1
     6    4    5 1
     7    5    6 2
     8    5   10 1
     9    6    7 1
    10    7    8 1
    11    8    9 1
    12    8   14 1
    13    9   10 1
    14    9   11 1
    15   10   19 1
    16   11   12 1
    17   12   13 1
    18   13   14 1
    19   13   17 1
    20   13   18 1
    21   14   15 1
    22   15   16 1
    23   16   17 1
    24   17   20 1
    25   20   21 1
    26   20   22 1
    27   22   23 1
    28   23   24 1
    29   24   25 1
    30   25   26 1
    31   25   27 1
    32   29   30 1
    33   29   38 1
    34   30   31 1
    35   31   32 1
    36   31   56 1
    37   32   33 1
    38   33   34 2
    39   33   38 1
    40   34   35 1
    41   35   36 1
    42   36   37 1
    43   36   42 1
    44   37   38 1
    45   37   39 1
    46   38   47 1
    47   39   40 1
    48   40   41 1
    49   41   42 1
    50   41   45 1
    51   41   46 1
    52   42   43 1
    53   43   44 1
    54   44   45 1
    55   45   48 1
    56   48   49 1
    57   48   50 1
    58   50   51 1
    59   51   52 1
    60   52   53 1
    61   53   54 1
    62   53   55 1
    63   57   58 1
    64   57   66 1
    65   58   59 1
    66   59   60 1
    67   59   84 1
    68   60   61 1
    69   61   62 2
    70   61   66 1
    71   62   63 1
    72   63   64 1
    73   64   65 1
    74   64   70 1
    75   65   66 1
    76   65   67 1
    77   66   75 1
    78   67   68 1
    79   68   69 1
    80   69   70 1
    81   69   73 1
    82   69   74 1
    83   70   71 1
    84   71   72 1
    85   72   73 1
    86   73   76 1
    87   76   77 1
    88   76   78 1
    89   78   79 1
    90   79   80 1
    91   80   81 1
    92   81   82 1
    93   81   83 1
    94   85   86 1
    95   85   94 1
    96   86   87 1
    97   87   88 1
    98   87  112 1
    99   88   89 1
   100   89   90 2
   101   89   94 1
   102   90   91 1
   103   91   92 1
   104   92   93 1
   105   92   98 1
   106   93   94 1
   107   93   95 1
   108   94  103 1
   109   95   96 1
   110   96   97 1
   111   97   98 1
   112   97  101 1
   113   97  102 1
   114   98   99 1
   115   99  100 1
   116  100  101 1
   117  101  104 1
   118  104  105 1
   119  104  106 1
   120  106  107 1
   121  107  108 1
   122  108  109 1
   123  109  110 1
   124  109  111 1
   125  113  114 1
   126  113  122 1
   127  114  115 1
   128  115  116 1
   129  115  140 1
   130  116  117 1
   131  117  118 2
   132  117  122 1
   133  118  119 1
   134  119  120 1
   135  120  121 1
   136  120  126 1
   137  121  122 1
   138  121  123 1
   139  122  131 1
   140  123  124 1
   141  124  125 1
   142  125  126 1
   143  125  129 1
   144  125  130 1
   145  126  127 1
   146  127  128 1
   147  128  129 1
   148  129  132 1
   149  132  133 1
   150  132  134 1
   151  134  135 1
   152  135  136 1
   153  136  137 1
   154  137  138 1
   155  137  139 1
   156  141  142 1
   157  141  150 1
   158  142  143 1
   159  143  144 1
   160  143  168 1
   161  144  145 1
   162  145  146 2
   163  145  150 1
   164  146  147 1
   165  147  148 1
   166  148  149 1
   167  148  154 1
   168  149  150 1
   169  149  151 1
   170  150  159 1
   171  151  152 1
   172  152  153 1
   173  153  154 1
   174  153  157 1
   175  153  158 1
   176  154  155 1
   177  155  156 1
   178  156  157 1
   179  157  160 1
   180  160  161 1
   181  160  162 1
   182  162  163 1
   183  163  164 1
   184  164  165 1
   185  165  166 1
   186  165  167 1
@<TRIPOS>SUBSTRUCTURE
     1 CLR452      1 RESIDUE           4 R     CLR     0 ROOT
     2 CLR453     29 RESIDUE           4 R     CLR     0 ROOT
     3 CLR454     57 RESIDUE           4 R     CLR     0 ROOT
     4 CLR455     85 RESIDUE           4 R     CLR     0 ROOT
     5 CLR456    113 RESIDUE           4 R     CLR     0 ROOT
     6 CLR457    141 RESIDUE           4 R     CLR     0 ROOT
