@<TRIPOS>MOLECULE
CLR
140 155 5 0 0
SMALL
NO_CHARGES


@<TRIPOS>ATOM
      1 C1         79.1130  122.5980   77.4860 C.3       1 CLR452      0.0000
      2 C2         79.2450  123.1440   76.0610 C.3       1 CLR452      0.0000
      3 C3         80.2150  124.3240   76.0510 C.3       1 CLR452      0.0000
      4 C4         81.6060  123.7900   76.3960 C.3       1 CLR452      0.0000
      5 C5         81.5300  123.1350   77.7660 C.2       1 CLR452      0.0000
      6 C6         82.4010  123.5000   78.6590 C.2       1 CLR452      0.0000
      7 C7         82.4620  122.9510   80.0560 C.3       1 CLR452      0.0000
      8 C8         81.6840  121.6360   80.1970 C.3       1 CLR452      0.0000
      9 C9         80.3230  121.7480   79.4950 C.3       1 CLR452      0.0000
     10 C10        80.4660  122.1080   78.0180 C.3       1 CLR452      0.0000
     11 C11        79.4860  120.4820   79.7150 C.3       1 CLR452      0.0000
     12 C12        79.3300  120.1550   81.2100 C.3       1 CLR452      0.0000
     13 C13        80.6830  120.0800   81.9390 C.3       1 CLR452      0.0000
     14 C14        81.3930  121.4460   81.6790 C.3       1 CLR452      0.0000
     15 C15        82.6070  121.3840   82.6080 C.3       1 CLR452      0.0000
     16 C16        81.9720  120.8100   83.8980 C.3       1 CLR452      0.0000
     17 C17        80.6870  120.0270   83.4820 C.3       1 CLR452      0.0000
     18 C18        81.5450  118.9550   81.3470 C.3       1 CLR452      0.0000
     19 C19        80.8750  120.8540   77.2340 C.3       1 CLR452      0.0000
     20 C20        80.6590  118.6140   84.1250 C.3       1 CLR452      0.0000
     21 C21        79.2320  118.0480   84.1650 C.3       1 CLR452      0.0000
     22 C22        81.1840  118.6670   85.5710 C.3       1 CLR452      0.0000
     23 C23        81.0160  117.3480   86.3300 C.3       1 CLR452      0.0000
     24 C24        81.4110  117.5810   87.7900 C.3       1 CLR452      0.0000
     25 C25        81.1170  116.3350   88.6290 C.3       1 CLR452      0.0000
     26 C26        81.5470  116.5850   90.0750 C.3       1 CLR452      0.0000
     27 C27        79.6220  116.0130   88.5930 C.3       1 CLR452      0.0000
     28 O1         80.2340  124.9220   74.7520 O.3       1 CLR452      0.0000
     29 C1        108.8450   92.5620   58.1990 C.3       2 CLR453      0.0000
     30 C2        108.4860   93.1300   56.8230 C.3       2 CLR453      0.0000
     31 C3        107.0980   92.6380   56.4240 C.3       2 CLR453      0.0000
     32 C4        106.0800   93.2760   57.3710 C.3       2 CLR453      0.0000
     33 C5        106.4340   92.8830   58.7970 C.2       2 CLR453      0.0000
     34 C6        105.4830   92.4240   59.5590 C.2       2 CLR453      0.0000
     35 C7        105.6770   91.9950   60.9870 C.3       2 CLR453      0.0000
     36 C8        106.9820   92.5480   61.5750 C.3       2 CLR453      0.0000
     37 C9        108.1120   92.2950   60.5660 C.3       2 CLR453      0.0000
     38 C10       107.8500   93.0400   59.2640 C.3       2 CLR453      0.0000
     39 C11       109.4870   92.6380   61.1430 C.3       2 CLR453      0.0000
     40 C12       109.7270   91.9430   62.4920 C.3       2 CLR453      0.0000
     41 C13       108.6190   92.2550   63.5100 C.3       2 CLR453      0.0000
     42 C14       107.2880   91.7710   62.8520 C.3       2 CLR453      0.0000
     43 C15       106.2810   91.9200   63.9970 C.3       2 CLR453      0.0000
     44 C16       107.0890   91.3440   65.1890 C.3       2 CLR453      0.0000
     45 C17       108.6040   91.4720   64.8410 C.3       2 CLR453      0.0000
     46 C18       108.5190   93.7680   63.7670 C.3       2 CLR453      0.0000
     47 C19       108.0720   94.5390   59.5050 C.3       2 CLR453      0.0000
     48 C20       109.3840   92.0830   66.0360 C.3       2 CLR453      0.0000
     49 C21       110.9050   91.8950   65.9110 C.3       2 CLR453      0.0000
     50 C22       108.9620   91.3880   67.3420 C.3       2 CLR453      0.0000
     51 C23       109.7390   91.8900   68.5630 C.3       2 CLR453      0.0000
     52 C24       109.4660   90.9430   69.7350 C.3       2 CLR453      0.0000
     53 C25       110.3040   91.3250   70.9600 C.3       2 CLR453      0.0000
     54 C26       110.0440   90.3100   72.0740 C.3       2 CLR453      0.0000
     55 C27       111.7930   91.2910   70.6100 C.3       2 CLR453      0.0000
     56 O1        106.8200   93.0310   55.0780 O.3       2 CLR453      0.0000
     57 C1        118.4200  116.1040   94.3030 C.3       3 CLR454      0.0000
     58 C2        118.9710  116.7490   95.5780 C.3       3 CLR454      0.0000
     59 C3        118.7100  118.2530   95.5490 C.3       3 CLR454      0.0000
     60 C4        117.1960  118.4740   95.6090 C.3       3 CLR454      0.0000
     61 C5        116.5470  117.7440   94.4430 C.2       3 CLR454      0.0000
     62 C6        115.7020  118.4030   93.7050 C.2       3 CLR454      0.0000
     63 C7        114.9800  117.8230   92.5220 C.3       3 CLR454      0.0000
     64 C8        114.9950  116.2880   92.5310 C.3       3 CLR454      0.0000
     65 C9        116.4110  115.7890   92.8500 C.3       3 CLR454      0.0000
     66 C10       116.9030  116.3070   94.1990 C.3       3 CLR454      0.0000
     67 C11       116.4960  114.2610   92.7470 C.3       3 CLR454      0.0000
     68 C12       116.0000  113.7530   91.3820 C.3       3 CLR454      0.0000
     69 C13       114.5870  114.2590   91.0490 C.3       3 CLR454      0.0000
     70 C14       114.6540  115.8180   91.1210 C.3       3 CLR454      0.0000
     71 C15       113.2870  116.2400   90.5750 C.3       3 CLR454      0.0000
     72 C16       113.1340  115.2860   89.3620 C.3       3 CLR454      0.0000
     73 C17       114.0350  114.0380   89.6220 C.3       3 CLR454      0.0000
     74 C18       113.5840  113.7690   92.1010 C.3       3 CLR454      0.0000
     75 C19       116.2260  115.5050   95.3150 C.3       3 CLR454      0.0000
     76 C20       113.2450  112.7250   89.3650 C.3       3 CLR454      0.0000
     77 C21       114.1830  111.5220   89.1780 C.3       3 CLR454      0.0000
     78 C22       112.3930  112.8600   88.0880 C.3       3 CLR454      0.0000
     79 C23       111.7580  111.5480   87.6140 C.3       3 CLR454      0.0000
     80 C24       111.0960  111.7910   86.2540 C.3       3 CLR454      0.0000
     81 C25       110.5430  110.4860   85.6740 C.3       3 CLR454      0.0000
     82 C26       111.6760  109.4790   85.4650 C.3       3 CLR454      0.0000
     83 C27       109.8580  110.7680   84.3360 C.3       3 CLR454      0.0000
     84 O1        119.3320  118.8660   96.6810 O.3       3 CLR454      0.0000
     85 C1         72.7450   97.5710   76.4210 C.3       4 CLR455      0.0000
     86 C2         72.1440   98.0020   75.0780 C.3       4 CLR455      0.0000
     87 C3         71.0200   99.0130   75.3020 C.3       4 CLR455      0.0000
     88 C4         71.6280  100.2760   75.9190 C.3       4 CLR455      0.0000
     89 C5         72.3590   99.8950   77.1970 C.2       4 CLR455      0.0000
     90 C6         72.0870  100.5710   78.2750 C.2       4 CLR455      0.0000
     91 C7         72.7230  100.3190   79.6110 C.3       4 CLR455      0.0000
     92 C8         74.0390   99.5440   79.4740 C.3       4 CLR455      0.0000
     93 C9         73.8230   98.3400   78.5460 C.3       4 CLR455      0.0000
     94 C10        73.3520   98.7720   77.1570 C.3       4 CLR455      0.0000
     95 C11        75.0660   97.4450   78.4980 C.3       4 CLR455      0.0000
     96 C12        75.4870   96.9990   79.9080 C.3       4 CLR455      0.0000
     97 C13        75.7150   98.1910   80.8530 C.3       4 CLR455      0.0000
     98 C14        74.3820   99.0080   80.8580 C.3       4 CLR455      0.0000
     99 C15        74.6360  100.0570   81.9430 C.3       4 CLR455      0.0000
    100 C16        75.2710   99.1800   83.0520 C.3       4 CLR455      0.0000
    101 C17        75.8940   97.9230   82.3650 C.3       4 CLR455      0.0000
    102 C18        76.8420   99.0840   80.3150 C.3       4 CLR455      0.0000
    103 C19        74.5570   99.2740   76.3520 C.3       4 CLR455      0.0000
    104 C20        77.3370   97.6790   82.8890 C.3       4 CLR455      0.0000
    105 C21        77.8560   96.2740   82.5420 C.3       4 CLR455      0.0000
    106 C22        77.3580   97.8400   84.4240 C.3       4 CLR455      0.0000
    107 C23        78.6000   97.2750   85.1240 C.3       4 CLR455      0.0000
    108 C24        78.4060   97.4140   86.6370 C.3       4 CLR455      0.0000
    109 C25        79.5690   96.7680   87.3940 C.3       4 CLR455      0.0000
    110 C26        79.5990   95.2590   87.1470 C.3       4 CLR455      0.0000
    111 C27        79.4370   97.0610   88.8890 C.3       4 CLR455      0.0000
    112 O1         70.4160   99.3390   74.0480 O.3       4 CLR455      0.0000
    113 C1         80.9900   95.5230  103.8680 C.3       5 CLR456      0.0000
    114 C2         81.9190   94.6050  104.6710 C.3       5 CLR456      0.0000
    115 C3         82.2790   93.3690  103.8480 C.3       5 CLR456      0.0000
    116 C4         83.0910   93.8260  102.6330 C.3       5 CLR456      0.0000
    117 C5         82.2760   94.8470  101.8540 C.2       5 CLR456      0.0000
    118 C6         82.1360   94.6580  100.5740 C.2       5 CLR456      0.0000
    119 C7         81.3620   95.5760   99.6730 C.3       5 CLR456      0.0000
    120 C8         81.2210   96.9680  100.3010 C.3       5 CLR456      0.0000
    121 C9         80.6980   96.8190  101.7390 C.3       5 CLR456      0.0000
    122 C10        81.6800   96.0130  102.5890 C.3       5 CLR456      0.0000
    123 C11        80.3640   98.1820  102.3630 C.3       5 CLR456      0.0000
    124 C12        79.4670   99.0510  101.4620 C.3       5 CLR456      0.0000
    125 C13        80.0300   99.1920  100.0400 C.3       5 CLR456      0.0000
    126 C14        80.1900   97.7420   99.4870 C.3       5 CLR456      0.0000
    127 C15        80.5310   97.9840   98.0140 C.3       5 CLR456      0.0000
    128 C16        79.5360   99.1150   97.6420 C.3       5 CLR456      0.0000
    129 C17        79.1350   99.8370   98.9640 C.3       5 CLR456      0.0000
    130 C18        81.4120   99.8640  100.0650 C.3       5 CLR456      0.0000
    131 C19        82.8470   96.9260  102.9880 C.3       5 CLR456      0.0000
    132 C20        79.2610  101.3790   98.8520 C.3       5 CLR456      0.0000
    133 C21        78.2840  102.0830   99.8010 C.3       5 CLR456      0.0000
    134 C22        78.9720  101.8950   97.4350 C.3       5 CLR456      0.0000
    135 C23        79.3310  103.3790   97.3380 C.3       5 CLR456      0.0000
    136 C24        79.1150  103.8800   95.9080 C.3       5 CLR456      0.0000
    137 C25        79.5680  105.3380   95.7930 C.3       5 CLR456      0.0000
    138 C26        79.3950  105.8150   94.3510 C.3       5 CLR456      0.0000
    139 C27        78.7300  106.2230   96.7200 C.3       5 CLR456      0.0000
    140 O1         83.0680   92.4790  104.6410 O.3       5 CLR456      0.0000
@<TRIPOS>BOND
     1    1    2 1
     2    1   10 1
     3    2    3 1
     4    3    4 1
     5    3   28 1
     6    4    5 1
     7    5    6 2
     8    5   10 1
     9    6    7 1
    10    7    8 1
    11    8    9 1
    12    8   14 1
    13    9   10 1
    14    9   11 1
    15   10   19 1
    16   11   12 1
    17   12   13 1
    18   13   14 1
    19   13   17 1
    20   13   18 1
    21   14   15 1
    22   15   16 1
    23   16   17 1
    24   17   20 1
    25   20   21 1
    26   20   22 1
    27   22   23 1
    28   23   24 1
    29   24   25 1
    30   25   26 1
    31   25   27 1
    32   29   30 1
    33   29   38 1
    34   30   31 1
    35   31   32 1
    36   31   56 1
    37   32   33 1
    38   33   34 2
    39   33   38 1
    40   34   35 1
    41   35   36 1
    42   36   37 1
    43   36   42 1
    44   37   38 1
    45   37   39 1
    46   38   47 1
    47   39   40 1
    48   40   41 1
    49   41   42 1
    50   41   45 1
    51   41   46 1
    52   42   43 1
    53   43   44 1
    54   44   45 1
    55   45   48 1
    56   48   49 1
    57   48   50 1
    58   50   51 1
    59   51   52 1
    60   52   53 1
    61   53   54 1
    62   53   55 1
    63   57   58 1
    64   57   66 1
    65   58   59 1
    66   59   60 1
    67   59   84 1
    68   60   61 1
    69   61   62 2
    70   61   66 1
    71   62   63 1
    72   63   64 1
    73   64   65 1
    74   64   70 1
    75   65   66 1
    76   65   67 1
    77   66   75 1
    78   67   68 1
    79   68   69 1
    80   69   70 1
    81   69   73 1
    82   69   74 1
    83   70   71 1
    84   71   72 1
    85   72   73 1
    86   73   76 1
    87   76   77 1
    88   76   78 1
    89   78   79 1
    90   79   80 1
    91   80   81 1
    92   81   82 1
    93   81   83 1
    94   85   86 1
    95   85   94 1
    96   86   87 1
    97   87   88 1
    98   87  112 1
    99   88   89 1
   100   89   90 2
   101   89   94 1
   102   90   91 1
   103   91   92 1
   104   92   93 1
   105   92   98 1
   106   93   94 1
   107   93   95 1
   108   94  103 1
   109   95   96 1
   110   96   97 1
   111   97   98 1
   112   97  101 1
   113   97  102 1
   114   98   99 1
   115   99  100 1
   116  100  101 1
   117  101  104 1
   118  104  105 1
   119  104  106 1
   120  106  107 1
   121  107  108 1
   122  108  109 1
   123  109  110 1
   124  109  111 1
   125  113  114 1
   126  113  122 1
   127  114  115 1
   128  115  116 1
   129  115  140 1
   130  116  117 1
   131  117  118 2
   132  117  122 1
   133  118  119 1
   134  119  120 1
   135  120  121 1
   136  120  126 1
   137  121  122 1
   138  121  123 1
   139  122  131 1
   140  123  124 1
   141  124  125 1
   142  125  126 1
   143  125  129 1
   144  125  130 1
   145  126  127 1
   146  127  128 1
   147  128  129 1
   148  129  132 1
   149  132  133 1
   150  132  134 1
   151  134  135 1
   152  135  136 1
   153  136  137 1
   154  137  138 1
   155  137  139 1
@<TRIPOS>SUBSTRUCTURE
     1 CLR452      1 RESIDUE           4 R     CLR     0 ROOT
     2 CLR453     29 RESIDUE           4 R     CLR     0 ROOT
     3 CLR454     57 RESIDUE           4 R     CLR     0 ROOT
     4 CLR455     85 RESIDUE           4 R     CLR     0 ROOT
     5 CLR456    113 RESIDUE           4 R     CLR     0 ROOT
