# created with PyMOL 2.3.5
@<TRIPOS>MOLECULE
BGC
24 24 1                 
SMALL
USER_CHARGES
@<TRIPOS>ATOM
1	  C2	-1.599	0.273	-0.228	C.3	1	BGC0	0.000	
2	  C3	-1.032	-1.069	0.244	C.3	1	BGC0	0.000	
3	  C4	0.406	-1.210	-0.265	C.3	1	BGC0	0.000	
4	  C5	1.234	-0.022	0.232	C.3	1	BGC0	0.000	
5	  C6	2.657	-0.124	-0.322	C.3	1	BGC0	0.000	
6	  C1	-0.694	1.404	0.269	C.3	1	BGC0	0.000	
7	  O1	-1.186	2.655	-0.214	O.3	1	BGC0	0.000	
8	  O2	-2.915	0.448	0.302	O.3	1	BGC0	0.000	
9	  O3	-1.829	-2.135	-0.276	O.3	1	BGC0	0.000	
10	  O4	0.971	-2.426	0.229	O.3	1	BGC0	0.000	
11	  O5	0.635	1.195	-0.215	O.3	1	BGC0	0.000	
12	  O6	3.460	0.918	0.235	O.3	1	BGC0	0.000	
13	  H2	-1.639	0.290	-1.317	 H	1	BGC0	0.000	
14	  H3	-1.038	-1.105	1.333	 H	1	BGC0	0.000	
15	  H4	0.407	-1.223	-1.355	 H	1	BGC0	0.000	
16	  H5	1.266	-0.033	1.322	 H	1	BGC0	0.000	
17	 H61	3.082	-1.092	-0.056	 H	1	BGC0	0.000	
18	 H62	2.632	-0.024	-1.407	 H	1	BGC0	0.000	
19	  H1	-0.687	1.412	1.359	 H	1	BGC0	0.000	
20	 HO1	-0.660	3.418	0.062	 H	1	BGC0	0.000	
21	 HO2	-3.336	1.279	0.043	 H	1	BGC0	0.000	
22	 HO3	-2.755	-2.104	0.001	 H	1	BGC0	0.000	
23	 HO4	0.493	-3.221	-0.044	 H	1	BGC0	0.000	
24	 HO6	4.377	0.915	-0.072	 H	1	BGC0	0.000	
@<TRIPOS>BOND
1 1 2 1
2 1 6 1
3 1 8 1
4 1 13 1
5 2 3 1
6 2 9 1
7 2 14 1
8 3 4 1
9 3 10 1
10 3 15 1
11 4 5 1
12 4 11 1
13 4 16 1
14 5 12 1
15 5 17 1
16 5 18 1
17 6 7 1
18 6 11 1
19 6 19 1
20 7 20 1
21 8 21 1
22 9 22 1
23 10 23 1
24 12 24 1
@<TRIPOS>SUBSTRUCTURE
1	BGC0	1	GROUP	1 ****	BGC
