# created with PyMOL 2.3.5
@<TRIPOS>MOLECULE
ERM
79 86 1 0 0
SMALL
USER_CHARGES


@<TRIPOS>ATOM
      1 H01         3.6610    2.7860   -0.3760 H         1 ERM1        0.0000
      2 C1          8.1510    0.4890   -1.2250 C.2       1 ERM1        0.0000
      3 N1          8.4870   -0.8540   -1.2960 N.pl3     1 ERM1        0.0000
      4 O1          0.5130    0.9240    2.2520 O.2       1 ERM1        0.0000
      5 C10         4.8800   -2.4280   -0.0210 C.2       1 ERM1        0.0000
      6 C11         5.8770   -3.3420   -0.3580 C.2       1 ERM1        0.0000
      7 C12         7.1530   -2.9880   -0.7830 C.2       1 ERM1        0.0000
      8 C13         7.4320   -1.6280   -0.9160 C.2       1 ERM1        0.0000
      9 C14         6.4110   -0.7290   -0.5960 C.2       1 ERM1        0.0000
     10 C15         4.5670    3.6290    1.3080 C.3       1 ERM1        0.0000
     11 C16         0.7800    0.5240    1.1380 C.2       1 ERM1        0.0000
     12 C17        -1.1970   -0.8980    1.2400 C.3       1 ERM1        0.0000
     13 C18        -2.1380    0.2400    1.5550 C.2       1 ERM1        0.0000
     14 C19        -4.6030    0.6350    1.2740 C.3       1 ERM1        0.0000
     15 N2          3.9520    2.4810    0.6290 N.3       1 ERM1        0.0000
     16 C2          6.8980    0.6300   -0.8040 C.2       1 ERM1        0.0000
     17 O2         -1.9120   -1.8070    0.3910 O.3       1 ERM1        0.0000
     18 C20        -5.7340   -0.0770    0.5730 C.2       1 ERM1        0.0000
     19 C21        -6.4750   -2.1200   -0.7140 C.3       1 ERM1        0.0000
     20 C22        -5.9100   -3.5610   -0.7380 C.3       1 ERM1        0.0000
     21 C23        -4.3810   -3.3090   -0.6110 C.3       1 ERM1        0.0000
     22 C24        -4.3410   -2.1320    0.3760 C.3       1 ERM1        0.0000
     23 C25        -3.1650   -1.1970    0.1050 C.3       1 ERM1        0.0000
     24 C26        -0.7800   -1.6040    2.5310 C.3       1 ERM1        0.0000
     25 C27        -4.5300    2.0800    0.7780 C.3       1 ERM1        0.0000
     26 C28        -4.1970    2.0910   -0.6920 C.2       1 ERM1        0.0000
     27 C29        -5.2030    1.9530   -1.6290 C.2       1 ERM1        0.0000
     28 C3          5.9820    1.7990   -0.5510 C.3       1 ERM1        0.0000
     29 N3         -0.0130   -0.3890    0.5420 N.pl3     1 ERM1        0.0000
     30 O3         -1.8660    1.2320    2.1980 O.2       1 ERM1        0.0000
     31 C30        -4.8980    1.9630   -2.9770 C.2       1 ERM1        0.0000
     32 C31        -3.5860    2.1110   -3.3880 C.2       1 ERM1        0.0000
     33 C32        -2.5800    2.2490   -2.4510 C.2       1 ERM1        0.0000
     34 C33        -2.8860    2.2440   -1.1020 C.2       1 ERM1        0.0000
     35 C4          4.9100    1.3940    0.4700 C.3       1 ERM1        0.0000
     36 N4         -3.3300   -0.0380    0.9980 N.pl3     1 ERM1        0.0000
     37 O4         -6.7960    0.4860    0.4090 O.2       1 ERM1        0.0000
     38 C5          2.7220    2.0650    1.3090 C.3       1 ERM1        0.0000
     39 N5         -5.5640   -1.3390    0.1300 N.pl3     1 ERM1        0.0000
     40 O5         -3.1930   -0.7670   -1.2570 O.3       1 ERM1        0.0000
     41 C6          1.9980    1.0470    0.4210 C.3       1 ERM1        0.0000
     42 C7          2.9430   -0.0890    0.1330 C.2       1 ERM1        0.0000
     43 C8          4.2530    0.0760    0.1590 C.2       1 ERM1        0.0000
     44 C9          5.1240   -1.0790   -0.1380 C.2       1 ERM1        0.0000
     45 H1          8.8140    1.3050   -1.4730 H         1 ERM1        0.0000
     46 H2          9.3510   -1.1940   -1.5760 H         1 ERM1        0.0000
     47 H3          3.9110   -2.7780    0.3020 H         1 ERM1        0.0000
     48 H4          5.6430   -4.3930   -0.2850 H         1 ERM1        0.0000
     49 H5          7.8890   -3.7380   -1.0310 H         1 ERM1        0.0000
     50 H6          5.4100    3.9900    0.7200 H         1 ERM1        0.0000
     51 H7          3.8300    4.4260    1.4140 H         1 ERM1        0.0000
     52 H8          4.9160    3.3240    2.2950 H         1 ERM1        0.0000
     53 H9         -4.7880    0.6310    2.3480 H         1 ERM1        0.0000
     54 H11        -6.4970   -1.7090   -1.7230 H         1 ERM1        0.0000
     55 H12        -7.4780   -2.1160   -0.2870 H         1 ERM1        0.0000
     56 H13        -6.2810   -4.1390    0.1090 H         1 ERM1        0.0000
     57 H14        -6.1470   -4.0570   -1.6790 H         1 ERM1        0.0000
     58 H15        -3.8740   -4.1810   -0.1990 H         1 ERM1        0.0000
     59 H16        -3.9510   -3.0260   -1.5720 H         1 ERM1        0.0000
     60 H17        -4.3080   -2.4980    1.4030 H         1 ERM1        0.0000
     61 H18        -0.2680   -0.8970    3.1830 H         1 ERM1        0.0000
     62 H19        -1.6650   -1.9900    3.0360 H         1 ERM1        0.0000
     63 H20        -0.1090   -2.4300    2.2930 H         1 ERM1        0.0000
     64 H21        -5.4920    2.5680    0.9360 H         1 ERM1        0.0000
     65 H22        -3.7560    2.6150    1.3290 H         1 ERM1        0.0000
     66 H23        -6.2280    1.8380   -1.3090 H         1 ERM1        0.0000
     67 H24         6.5610    2.6350   -0.1590 H         1 ERM1        0.0000
     68 H25         5.5030    2.0940   -1.4840 H         1 ERM1        0.0000
     69 H26         0.2000   -0.7090   -0.3480 H         1 ERM1        0.0000
     70 H27        -5.6840    1.8550   -3.7100 H         1 ERM1        0.0000
     71 H28        -3.3480    2.1180   -4.4410 H         1 ERM1        0.0000
     72 H29        -1.5550    2.3640   -2.7710 H         1 ERM1        0.0000
     73 H30        -2.1000    2.3560   -0.3700 H         1 ERM1        0.0000
     74 H31         5.4140    1.2720    1.4290 H         1 ERM1        0.0000
     75 H32         2.9690    1.6070    2.2670 H         1 ERM1        0.0000
     76 H33         2.0810    2.9320    1.4710 H         1 ERM1        0.0000
     77 H34        -2.5010   -0.1310   -1.4830 H         1 ERM1        0.0000
     78 H35         1.6980    1.5220   -0.5130 H         1 ERM1        0.0000
     79 H36         2.5390   -1.0630   -0.1000 H         1 ERM1        0.0000
@<TRIPOS>BOND
     1    2    3 1
     2    2   45 1
     3    3    8 1
     4    3   46 1
     5    5    6 2
     6    5   47 1
     7    6    7 1
     8    6   48 1
     9    7   49 1
    10    7    8 2
    11    8    9 1
    12   10   15 1
    13   10   50 1
    14   10   51 1
    15   10   52 1
    16    4   11 2
    17   11   41 1
    18   12   13 1
    19   12   29 1
    20   13   30 2
    21   13   36 1
    22   14   25 1
    23   14   53 1
    24    1   15 1
    25   15   35 1
    26    2   16 2
    27    9   16 1
    28   12   17 1
    29   17   23 1
    30   14   18 1
    31   18   37 2
    32   19   39 1
    33   19   54 1
    34   19   55 1
    35   19   20 1
    36   20   56 1
    37   20   57 1
    38   20   21 1
    39   21   22 1
    40   21   58 1
    41   21   59 1
    42   22   23 1
    43   22   39 1
    44   22   60 1
    45   23   36 1
    46   23   40 1
    47   12   24 1
    48   24   61 1
    49   24   62 1
    50   24   63 1
    51   25   26 1
    52   25   64 1
    53   25   65 1
    54   26   27 2
    55   26   34 1
    56   27   31 1
    57   27   66 1
    58   16   28 1
    59   28   67 1
    60   28   68 1
    61   11   29 1
    62   29   69 1
    63   31   32 2
    64   31   70 1
    65   32   71 1
    66   32   33 1
    67   33   72 1
    68   33   34 2
    69   34   73 1
    70   28   35 1
    71   35   43 1
    72   35   74 1
    73   14   36 1
    74   15   38 1
    75   38   41 1
    76   38   75 1
    77   38   76 1
    78   18   39 1
    79   40   77 1
    80   41   42 1
    81   41   78 1
    82   42   43 2
    83   42   79 1
    84   43   44 1
    85    5   44 1
    86    9   44 2
@<TRIPOS>SUBSTRUCTURE
     1 ERM1        1 RESIDUE           4 A     ERM     0 ROOT
