# created with PyMOL 2.3.5
@<TRIPOS>MOLECULE
D7W
29 30 1 0 0
SMALL
USER_CHARGES


@<TRIPOS>ATOM
      1 C13         2.3160   -0.0630   -0.3300 C.2       1 D7W1        0.0000
      2 C15         4.5290    0.4120    0.4560 C.2       1 D7W1        0.0000
      3 C17         2.8560    2.1240    0.5060 C.2       1 D7W1        0.0000
      4 C01        -4.5580    2.0120   -0.5320 C.3       1 D7W1        0.0000
      5 C03        -4.7930   -0.5400    0.0620 C.3       1 D7W1        0.0000
      6 C04        -3.7160   -1.5700    0.3410 C.2       1 D7W1        0.0000
      7 C07        -2.7130    0.3430   -0.0770 C.2       1 D7W1        0.0000
      8 C09        -0.4030    0.7930   -0.1060 C.2       1 D7W1        0.0000
      9 C12         1.9330    1.2370   -0.0320 C.2       1 D7W1        0.0000
     10 C14         3.6130   -0.4730   -0.0850 C.2       1 D7W1        0.0000
     11 C16         4.1490    1.7080    0.7540 C.2       1 D7W1        0.0000
     12 N02        -4.0230    0.6890   -0.2020 N.pl3     1 D7W1        0.0000
     13 N06        -2.5560   -0.9270    0.2280 N.2       1 D7W1        0.0000
     14 N08        -1.6740    1.2180   -0.2480 N.pl3     1 D7W1        0.0000
     15 N11         0.6190    1.6540   -0.2750 N.pl3     1 D7W1        0.0000
     16 O05        -3.8780   -2.7440    0.6120 O.2       1 D7W1        0.0000
     17 O10        -0.1790   -0.3690    0.1760 O.2       1 D7W1        0.0000
     18 CL1         4.0940   -2.0990   -0.4560 Cl        1 D7W1        0.0000
     19 H1          1.6000   -0.7550   -0.7490 H         1 D7W1        0.0000
     20 H2          5.5410    0.0880    0.6520 H         1 D7W1        0.0000
     21 H3          2.5600    3.1370    0.7390 H         1 D7W1        0.0000
     22 H4         -4.7240    2.5760    0.3850 H         1 D7W1        0.0000
     23 H5         -3.8460    2.5450   -1.1620 H         1 D7W1        0.0000
     24 H6         -5.5020    1.8990   -1.0660 H         1 D7W1        0.0000
     25 H7         -5.3790   -0.8230   -0.8120 H         1 D7W1        0.0000
     26 H8         -5.4390   -0.4100    0.9310 H         1 D7W1        0.0000
     27 H9          4.8650    2.3950    1.1800 H         1 D7W1        0.0000
     28 H10        -1.8530    2.1450   -0.4730 H         1 D7W1        0.0000
     29 H11         0.4440    2.5630   -0.5640 H         1 D7W1        0.0000
@<TRIPOS>BOND
     1   10   18 1
     2    2   10 2
     3    1   10 1
     4    2   11 1
     5    1    9 2
     6    3   11 2
     7    3    9 1
     8    9   15 1
     9    8   17 2
    10    8   15 1
    11    8   14 1
    12    6   13 1
    13    7   13 2
    14    6   16 2
    15    7   14 1
    16    5    6 1
    17    7   12 1
    18    5   12 1
    19    4   12 1
    20    1   19 1
    21    2   20 1
    22    3   21 1
    23    4   22 1
    24    4   23 1
    25    4   24 1
    26    5   25 1
    27    5   26 1
    28   11   27 1
    29   14   28 1
    30   15   29 1
@<TRIPOS>SUBSTRUCTURE
     1 D7W1        1 RESIDUE           4 A     D7W     0 ROOT
