@<TRIPOS>MOLECULE
V6G
65 75 1 0 0
SMALL
NO_CHARGES


@<TRIPOS>ATOM
      1 C01       155.1470  140.5830  119.6170 C.ar      1 V6G536      0.0000
      2 C02       155.2610  140.0450  120.9080 C.ar      1 V6G536      0.0000
      3 C03       154.2210  140.1160  118.7100 C.ar      1 V6G536      0.0000
      4 C04       154.4210  139.0150  121.2510 C.ar      1 V6G536      0.0000
      5 C05       153.4960  138.5520  120.3270 C.ar      1 V6G536      0.0000
      6 C06       153.3890  139.0860  119.0850 C.ar      1 V6G536      0.0000
      7 C07       155.8430  141.5940  118.9830 C.ar      1 V6G536      0.0000
      8 C08       155.3510  141.7500  117.7280 C.ar      1 V6G536      0.0000
      9 C09       153.5100  140.6280  116.3050 C.3       1 V6G536      0.0000
     10 C10       154.0420  140.3390  114.9140 C.3       1 V6G536      0.0000
     11 C11       153.2540  139.2990  115.6420 C.3       1 V6G536      0.0000
     12 C12       152.3690  141.5890  116.4030 C.2       1 V6G536      0.0000
     13 C13       150.5940  142.4190  117.2910 C.2       1 V6G536      0.0000
     14 C14       151.8400  139.0250  115.1240 C.3       1 V6G536      0.0000
     15 C15       155.7550  142.6920  116.7270 C.2       1 V6G536      0.0000
     16 C16       155.8630  144.9660  115.8070 C.3       1 V6G536      0.0000
     17 C17       154.5730  145.0990  114.9960 C.3       1 V6G536      0.0000
     18 C18       153.4530  145.4370  115.9480 C.ar      1 V6G536      0.0000
     19 C19       153.4910  145.2240  117.2990 C.ar      1 V6G536      0.0000
     20 C20       154.6500  144.6390  117.9790 C.3       1 V6G536      0.0000
     21 C21       155.4160  145.8010  118.5860 C.3       1 V6G536      0.0000
     22 C22       152.3390  145.6220  117.8050 C.ar      1 V6G536      0.0000
     23 C23       150.3120  146.6080  116.8120 C.ar      1 V6G536      0.0000
     24 C24       149.4890  146.0020  115.8870 C.ar      1 V6G536      0.0000
     25 C25       149.8600  147.5880  117.6690 C.ar      1 V6G536      0.0000
     26 C26       148.5470  147.9470  117.6000 C.ar      1 V6G536      0.0000
     27 C27       147.7200  147.3470  116.6700 C.ar      1 V6G536      0.0000
     28 C28       148.1710  146.3680  115.8030 C.ar      1 V6G536      0.0000
     29 C29       152.1630  146.7030  119.9450 C.2       1 V6G536      0.0000
     30 C30       150.8530  145.2910  121.0240 C.2       1 V6G536      0.0000
     31 C31       151.0350  144.7940  119.8000 C.2       1 V6G536      0.0000
     32 C32       147.2960  145.6920  114.7850 C.3       1 V6G536      0.0000
     33 C33       148.0850  148.9970  118.5540 C.3       1 V6G536      0.0000
     34 C34       151.6230  147.3330  122.2330 C.ar      1 V6G536      0.0000
     35 C35       150.5450  148.1210  122.4830 C.ar      1 V6G536      0.0000
     36 C36       152.7640  147.4400  123.0280 C.ar      1 V6G536      0.0000
     37 C37       152.7830  148.3200  124.0830 C.ar      1 V6G536      0.0000
     38 C38       151.6530  149.0980  124.3090 C.ar      1 V6G536      0.0000
     39 C39       150.5400  149.0170  123.5380 C.ar      1 V6G536      0.0000
     40 C40       149.6220  149.9300  124.0460 C.ar      1 V6G536      0.0000
     41 C41       152.1570  150.5330  126.3060 C.3       1 V6G536      0.0000
     42 C42       155.0820  136.9640  122.5770 C.3       1 V6G536      0.0000
     43 C43       155.0360  136.3370  123.9850 C.3       1 V6G536      0.0000
     44 C44       154.8260  138.5160  124.9940 C.3       1 V6G536      0.0000
     45 C45       155.1030  139.1070  123.6230 C.3       1 V6G536      0.0000
     46 C46       154.3730  138.3040  122.5900 C.3       1 V6G536      0.0000
     47 C47       155.6260  139.3130  126.0050 C.3       1 V6G536      0.0000
     48 C48       153.3690  138.5060  125.4030 C.3       1 V6G536      0.0000
     49 F01       146.4240  147.7200  116.6090 F         1 V6G536      0.0000
     50 F02       149.4540  148.0280  121.7090 F         1 V6G536      0.0000
     51 N01       154.3440  140.8160  117.5170 N.ar      1 V6G536      0.0000
     52 N02       152.0660  142.5550  115.6590 N.2       1 V6G536      0.0000
     53 N03       151.5000  141.4700  117.4160 N.am      1 V6G536      0.0000
     54 N04       155.4210  144.0280  116.8660 N.am      1 V6G536      0.0000
     55 N05       152.3230  145.9560  115.5980 N.ar      1 V6G536      0.0000
     56 N06       151.6290  146.1000  116.7660 N.ar      1 V6G536      0.0000
     57 N07       151.8620  145.6530  119.1250 N.am      1 V6G536      0.0000
     58 N08       151.5600  146.4620  121.1320 N.am      1 V6G536      0.0000
     59 N09       151.3430  150.0440  125.2370 N.ar      1 V6G536      0.0000
     60 N10       150.0940  150.5530  125.0710 N.ar      1 V6G536      0.0000
     61 O01       150.9350  143.1170  116.1920 O.3       1 V6G536      0.0000
     62 O02       149.6520  142.5780  118.0670 O.2       1 V6G536      0.0000
     63 O03       156.4010  142.3560  115.7570 O.2       1 V6G536      0.0000
     64 O04       152.8710  147.6660  119.6480 O.2       1 V6G536      0.0000
     65 O05       155.3450  137.2240  125.0420 O.3       1 V6G536      0.0000
@<TRIPOS>BOND
     1    1    2 ar
     2    1    3 ar
     3    1    7 ar
     4    2    4 ar
     5    3    6 ar
     6    3   51 ar
     7    4    5 ar
     8    4   46 1
     9    5    6 ar
    10    7    8 ar
    11    8   15 1
    12    8   51 ar
    13    9   10 1
    14    9   11 1
    15    9   12 1
    16    9   51 1
    17   10   11 1
    18   11   14 1
    19   12   52 2
    20   12   53 1
    21   13   53 am
    22   13   61 1
    23   13   62 2
    24   15   54 am
    25   15   63 2
    26   16   17 1
    27   16   54 1
    28   17   18 1
    29   18   19 ar
    30   18   55 ar
    31   19   20 1
    32   19   22 ar
    33   20   21 1
    34   20   54 1
    35   22   56 ar
    36   22   57 1
    37   23   24 ar
    38   23   25 ar
    39   23   56 1
    40   24   28 ar
    41   25   26 ar
    42   26   27 ar
    43   26   33 1
    44   27   28 ar
    45   27   49 1
    46   28   32 1
    47   29   57 am
    48   29   58 am
    49   29   64 2
    50   30   31 2
    51   30   58 1
    52   31   57 1
    53   34   35 ar
    54   34   36 ar
    55   34   58 1
    56   35   39 ar
    57   35   50 1
    58   36   37 ar
    59   37   38 ar
    60   38   39 ar
    61   38   59 ar
    62   39   40 ar
    63   40   60 ar
    64   41   59 1
    65   42   43 1
    66   42   46 1
    67   43   65 1
    68   44   45 1
    69   44   47 1
    70   44   48 1
    71   44   65 1
    72   45   46 1
    73   52   61 1
    74   55   56 ar
    75   59   60 ar
@<TRIPOS>SUBSTRUCTURE
     1 V6G536      1 RESIDUE           4 R     V6G     0 ROOT
