@<TRIPOS>MOLECULE
BNG
42 42 2 0 0
SMALL
NO_CHARGES


@<TRIPOS>ATOM
      1 C1         13.1770  -45.5070  -36.0920 C.3       1 BNG427      0.0000
      2 C2         13.2790  -44.2900  -35.1780 C.3       1 BNG427      0.0000
      3 C3         13.4710  -43.0210  -35.9940 C.3       1 BNG427      0.0000
      4 C4         14.6760  -43.1820  -36.9090 C.3       1 BNG427      0.0000
      5 C5         14.5210  -44.4240  -37.7820 C.3       1 BNG427      0.0000
      6 C6         15.7640  -44.6380  -38.6410 C.3       1 BNG427      0.0000
      7 C1'        11.9270  -47.4660  -35.5920 C.3       1 BNG427      0.0000
      8 C2'        11.6710  -48.4110  -34.4250 C.3       1 BNG427      0.0000
      9 C3'        10.3280  -48.1470  -33.7550 C.3       1 BNG427      0.0000
     10 C4'         9.2170  -48.9330  -34.4410 C.3       1 BNG427      0.0000
     11 C5'         8.1330  -49.3340  -33.4450 C.3       1 BNG427      0.0000
     12 C6'         7.2130  -48.1660  -33.1140 C.3       1 BNG427      0.0000
     13 C7'         6.1840  -47.9570  -34.2180 C.3       1 BNG427      0.0000
     14 C8'         5.5150  -46.5960  -34.0790 C.3       1 BNG427      0.0000
     15 C9'         6.5440  -45.4900  -34.1620 C.3       1 BNG427      0.0000
     16 O1         13.0790  -46.6820  -35.2860 O.3       1 BNG427      0.0000
     17 O2         12.0900  -44.1900  -34.3820 O.3       1 BNG427      0.0000
     18 O3         13.6730  -41.9080  -35.1150 O.3       1 BNG427      0.0000
     19 O4         14.8080  -42.0190  -37.7350 O.3       1 BNG427      0.0000
     20 O5         14.2940  -45.5950  -36.9870 O.3       1 BNG427      0.0000
     21 O6         16.8690  -45.0090  -37.8070 O.3       1 BNG427      0.0000
     22 C1         17.6450  -14.7950  -28.9930 C.3       2 BNG428      0.0000
     23 C2         18.0130  -14.3490  -27.5800 C.3       2 BNG428      0.0000
     24 C3         17.2210  -13.1040  -27.2090 C.3       2 BNG428      0.0000
     25 C4         17.4580  -12.0170  -28.2520 C.3       2 BNG428      0.0000
     26 C5         17.1730  -12.5430  -29.6590 C.3       2 BNG428      0.0000
     27 C6         17.5100  -11.5030  -30.7240 C.3       2 BNG428      0.0000
     28 C1'        17.8720  -16.5030  -30.5960 C.3       2 BNG428      0.0000
     29 C2'        18.4160  -17.9030  -30.8510 C.3       2 BNG428      0.0000
     30 C3'        17.5900  -18.9650  -30.1340 C.3       2 BNG428      0.0000
     31 C4'        17.9330  -20.3500  -30.6740 C.3       2 BNG428      0.0000
     32 C5'        17.1260  -21.4530  -29.9960 C.3       2 BNG428      0.0000
     33 C6'        17.1870  -22.7270  -30.8340 C.3       2 BNG428      0.0000
     34 C7'        17.0490  -23.9870  -29.9860 C.3       2 BNG428      0.0000
     35 C8'        17.2040  -25.2280  -30.8560 C.3       2 BNG428      0.0000
     36 C9'        18.0130  -26.2930  -30.1480 C.3       2 BNG428      0.0000
     37 O1         18.3560  -15.9810  -29.3590 O.3       2 BNG428      0.0000
     38 O2         17.7380  -15.3970  -26.6430 O.3       2 BNG428      0.0000
     39 O3         17.6190  -12.6440  -25.9120 O.3       2 BNG428      0.0000
     40 O4         16.6000  -10.9040  -27.9810 O.3       2 BNG428      0.0000
     41 O5         17.9090  -13.7420  -29.9270 O.3       2 BNG428      0.0000
     42 O6         18.9290  -11.4390  -30.9050 O.3       2 BNG428      0.0000
@<TRIPOS>BOND
     1    1    2 1
     2    1   16 1
     3    1   20 1
     4    2    3 1
     5    2   17 1
     6    3    4 1
     7    3   18 1
     8    4    5 1
     9    4   19 1
    10    5    6 1
    11    5   20 1
    12    6   21 1
    13    7    8 1
    14    7   16 1
    15    8    9 1
    16    9   10 1
    17   10   11 1
    18   11   12 1
    19   12   13 1
    20   13   14 1
    21   14   15 1
    22   22   23 1
    23   22   37 1
    24   22   41 1
    25   23   24 1
    26   23   38 1
    27   24   25 1
    28   24   39 1
    29   25   26 1
    30   25   40 1
    31   26   27 1
    32   26   41 1
    33   27   42 1
    34   28   29 1
    35   28   37 1
    36   29   30 1
    37   30   31 1
    38   31   32 1
    39   32   33 1
    40   33   34 1
    41   34   35 1
    42   35   36 1
@<TRIPOS>SUBSTRUCTURE
     1 BNG427      1 RESIDUE           4 A     BNG     0 ROOT
     2 BNG428     22 RESIDUE           4 A     BNG     0 ROOT
