@<TRIPOS>MOLECULE
HVU
17 19 1 0 0
SMALL
NO_CHARGES


@<TRIPOS>ATOM
      1 CA         92.1830  119.6440  114.7860 C.3       1 HVU463      0.0000
      2 CA1        91.0420  118.9350  115.5360 C.3       1 HVU463      0.0000
      3 CB         92.6590  120.8690  115.6080 C.3       1 HVU463      0.0000
      4 CB1        92.9810  120.3410  117.0000 C.3       1 HVU463      0.0000
      5 CG         93.8700  121.5550  114.9600 C.ar      1 HVU463      0.0000
      6 CD1        94.7160  120.9660  114.0770 C.ar      1 HVU463      0.0000
      7 CD2        94.2600  122.9900  115.2250 C.ar      1 HVU463      0.0000
      8 CE2        95.4660  123.1410  114.3640 C.ar      1 HVU463      0.0000
      9 CE3        93.8320  124.0840  115.9840 C.ar      1 HVU463      0.0000
     10 NE1        95.5640  121.8840  113.7920 N.ar      1 HVU463      0.0000
     11 CZ2        96.1670  124.3350  114.2990 C.ar      1 HVU463      0.0000
     12 CZ3        94.5730  125.3090  115.9010 C.ar      1 HVU463      0.0000
     13 NZ         91.3740  118.5700  116.7580 N.4       1 HVU463      0.0000
     14 CH2        95.7260  125.4230  115.0670 C.ar      1 HVU463      0.0000
     15 OH         94.1530  126.4250  116.6640 O.3       1 HVU463      0.0000
     16 CJ         90.3780  117.9310  117.3190 C.3       1 HVU463      0.0000
     17 CF1        91.7300  119.6070  117.5310 C.3       1 HVU463      0.0000
@<TRIPOS>BOND
     1    1    2 1
     2    1    3 1
     3    2   13 1
     4    3    4 1
     5    3    5 1
     6    4   17 1
     7    5    6 ar
     8    5    7 ar
     9    6   10 ar
    10    7    8 ar
    11    7    9 ar
    12    8   10 ar
    13    8   11 ar
    14    9   12 ar
    15   11   14 ar
    16   12   14 ar
    17   12   15 1
    18   13   16 1
    19   13   17 1
@<TRIPOS>SUBSTRUCTURE
     1 HVU463      1 RESIDUE           4 R     HVU     0 ROOT
