# created with PyMOL 2.3.5
@<TRIPOS>MOLECULE
8TZ
32 33 1 0 0
SMALL
USER_CHARGES


@<TRIPOS>ATOM
      1 C1          2.3440    0.2130   -0.7050 C.2       1 8TZ1        0.0000
      2 C2          2.9030   -1.0150   -0.3960 C.2       1 8TZ1        0.0000
      3 C3          2.2070   -1.9120    0.3980 C.2       1 8TZ1        0.0000
      4 C4          0.9560   -1.5790    0.8810 C.2       1 8TZ1        0.0000
      5 C5          0.3980   -0.3520    0.5710 C.2       1 8TZ1        0.0000
      6 C6          1.0920    0.5430   -0.2210 C.2       1 8TZ1        0.0000
      7 C7          0.4860    1.8830   -0.5520 C.3       1 8TZ1        0.0000
      8 C8          0.7820    2.8690    0.5800 C.3       1 8TZ1        0.0000
      9 C9         -0.9670    0.0090    1.0970 C.3       1 8TZ1        0.0000
     10 C10        -2.0090   -0.3230    0.0610 C.2       1 8TZ1        0.0000
     11 O1         -1.2290   -0.7330    2.2910 O.3       1 8TZ1        0.0000
     12 N1         -3.0910   -1.1070    0.2550 N.pl3     1 8TZ1        0.0000
     13 C11        -3.7770   -1.1520   -0.9280 C.2       1 8TZ1        0.0000
     14 C12        -3.0910   -0.3940   -1.8050 C.2       1 8TZ1        0.0000
     15 N2         -2.0190    0.1050   -1.1720 N.2       1 8TZ1        0.0000
     16 F1          4.1270   -1.3400   -0.8680 F         1 8TZ1        0.0000
     17 C13         0.1670    4.2300    0.2440 C.3       1 8TZ1        0.0000
     18 H1          2.8880    0.9140   -1.3200 H         1 8TZ1        0.0000
     19 H2          2.6420   -2.8700    0.6400 H         1 8TZ1        0.0000
     20 H3          0.4130   -2.2780    1.5000 H         1 8TZ1        0.0000
     21 H4          0.9160    2.2560   -1.4810 H         1 8TZ1        0.0000
     22 H5         -0.5920    1.7750   -0.6670 H         1 8TZ1        0.0000
     23 H6          0.3530    2.4960    1.5090 H         1 8TZ1        0.0000
     24 H7          1.8610    2.9770    0.6950 H         1 8TZ1        0.0000
     25 H8         -1.0000    1.0760    1.3180 H         1 8TZ1        0.0000
     26 H9         -1.2150   -1.6920    2.1680 H         1 8TZ1        0.0000
     27 H10        -3.3360   -1.5560    1.0800 H         1 8TZ1        0.0000
     28 H11        -4.6920   -1.6920   -1.1220 H         1 8TZ1        0.0000
     29 H12        -3.3590   -0.2150   -2.8360 H         1 8TZ1        0.0000
     30 H14         0.5960    4.6030   -0.6860 H         1 8TZ1        0.0000
     31 H15        -0.9110    4.1220    0.1280 H         1 8TZ1        0.0000
     32 H16         0.3780    4.9330    1.0500 H         1 8TZ1        0.0000
@<TRIPOS>BOND
     1    3    4 2
     2    2    3 1
     3    2   16 1
     4    4    5 1
     5    1    2 2
     6   12   13 1
     7   10   12 1
     8   13   14 2
     9    9   11 1
    10    5    9 1
    11    5    6 2
    12    1    6 1
    13    9   10 1
    14   10   15 2
    15    6    7 1
    16   14   15 1
    17    7    8 1
    18    8   17 1
    19    1   18 1
    20    3   19 1
    21    4   20 1
    22    7   21 1
    23    7   22 1
    24    8   23 1
    25    8   24 1
    26    9   25 1
    27   11   26 1
    28   12   27 1
    29   13   28 1
    30   14   29 1
    31   17   30 1
    32   17   31 1
    33   17   32 1
@<TRIPOS>SUBSTRUCTURE
     1 8TZ1        1 RESIDUE           4 A     8TZ     0 ROOT
