@<TRIPOS>MOLECULE
40F
13 14 1 0 0
SMALL
NO_CHARGES


@<TRIPOS>ATOM
      1 O1        140.1990  241.3310  184.9700 O.co2     1 40F937      0.0000
      2 C7        138.3890  238.1660  185.0000 C.2       1 40F937      0.0000
      3 O2        135.7640  241.8690  188.6890 O.co2     1 40F937      0.0000
      4 C6        137.3880  237.6740  185.8340 C.2       1 40F937      0.0000
      5 C1        138.8180  239.6010  185.6610 C.3       1 40F937      0.0000
      6 C5        136.7840  238.9410  186.7090 C.3       1 40F937      0.0000
      7 C4        135.7090  240.9060  187.8770 C.2       1 40F937      0.0000
      8 C3        136.9640  240.0670  187.6040 C.3       1 40F937      0.0000
      9 C2        137.4820  240.1360  186.2560 C.3       1 40F937      0.0000
     10 O3        134.6250  240.6280  187.2950 O.co2     1 40F937      0.0000
     11 N         139.7960  239.4040  186.7370 N.4       1 40F937      0.0000
     12 C         139.3220  240.4750  184.6690 C.2       1 40F937      0.0000
     13 O         138.8980  240.3930  183.4830 O.co2     1 40F937      0.0000
@<TRIPOS>BOND
     1    1   12 2
     2    2    4 2
     3    2    5 1
     4    3    7 2
     5    4    6 1
     6    5    9 1
     7    5   11 1
     8    5   12 1
     9    6    8 1
    10    6    9 1
    11    7    8 1
    12    7   10 2
    13    8    9 1
    14   12   13 2
@<TRIPOS>SUBSTRUCTURE
     1 40F937      1 RESIDUE           4 R     40F     0 ROOT
