@<TRIPOS>MOLECULE
G6O
18 20 1 0 0
SMALL
NO_CHARGES


@<TRIPOS>ATOM
      1 C1         96.2970  121.9390  117.3890 C.ar      1 G6O500      0.0000
      2 C2         96.6840  121.2220  116.3130 C.ar      1 G6O500      0.0000
      3 C3         97.4290  122.8870  117.9880 C.ar      1 G6O500      0.0000
      4 C4         98.2170  121.5000  115.8910 C.ar      1 G6O500      0.0000
      5 C5         98.6120  122.9530  117.4810 C.ar      1 G6O500      0.0000
      6 C6         98.9680  122.3220  116.5250 C.ar      1 G6O500      0.0000
      7 C7         94.8710  121.8060  117.9420 C.3       1 G6O500      0.0000
      8 C8         94.5900  120.1670  116.0580 C.3       1 G6O500      0.0000
      9 C9         93.9840  121.4740  116.6540 C.3       1 G6O500      0.0000
     10 C10        93.2480  123.2410  118.7540 C.3       1 G6O500      0.0000
     11 C11        92.1740  122.3570  118.1030 C.3       1 G6O500      0.0000
     12 C12        91.7980  121.9150  115.8040 C.3       1 G6O500      0.0000
     13 C13        92.3830  121.4480  114.4430 C.3       1 G6O500      0.0000
     14 O1         95.8950  120.4560  115.7600 O.3       1 G6O500      0.0000
     15 C14        91.4630  121.9210  113.3150 C.3       1 G6O500      0.0000
     16 O3         99.5350  123.8160  118.0830 O.3       1 G6O500      0.0000
     17 O2         94.4300  122.8960  118.4920 O.3       1 G6O500      0.0000
     18 N          92.6000  121.4690  116.9330 N.4       1 G6O500      0.0000
@<TRIPOS>BOND
     1    1    2 ar
     2    1    3 ar
     3    1    7 1
     4    2    4 ar
     5    2   14 1
     6    3    5 ar
     7    4    6 ar
     8    5    6 ar
     9    5   16 1
    10    7    9 1
    11    7   17 1
    12    8    9 1
    13    8   14 1
    14    9   18 1
    15   10   11 1
    16   10   17 1
    17   11   18 1
    18   12   13 1
    19   12   18 1
    20   13   15 1
@<TRIPOS>SUBSTRUCTURE
     1 G6O500      1 RESIDUE           4 R     G6O     0 ROOT
