# created with PyMOL 2.3.5
@<TRIPOS>MOLECULE
8K8
58 62 1 0 0
SMALL
USER_CHARGES


@<TRIPOS>ATOM
      1 C10         1.0650   -3.4850    0.2210 C.3       1 8K81        0.0000
      2 C13         0.3150   -0.3220   -0.0930 C.2       1 8K81        0.0000
      3 C14         0.5090    0.9390    0.4560 C.2       1 8K81        0.0000
      4 C16        -1.6300    0.6000    0.1170 C.2       1 8K81        0.0000
      5 C18        -3.1240    0.7980    0.0640 C.3       1 8K81        0.0000
      6 C21        -4.9680   -0.8530    0.1170 C.3       1 8K81        0.0000
      7 C22        -3.8640   -0.2580   -0.8070 C.3       1 8K81        0.0000
      8 C23        -4.6920    0.5660   -1.8380 C.3       1 8K81        0.0000
      9 C24        -4.9840    1.8560   -1.0240 C.3       1 8K81        0.0000
     10 C25        -3.5540    2.1810   -0.5090 C.3       1 8K81        0.0000
     11 C26        -5.8560    1.4900    0.1800 C.3       1 8K81        0.0000
     12 C27         1.8210    1.3650    0.7550 C.2       1 8K81        0.0000
     13 C01         6.8380    2.8450   -1.3040 C.3       1 8K81        0.0000
     14 C02         6.2420    2.1360   -0.0870 C.3       1 8K81        0.0000
     15 C03         4.8170    1.6810   -0.4080 C.3       1 8K81        0.0000
     16 C04         4.2210    0.9720    0.8090 C.3       1 8K81        0.0000
     17 N05         2.8560    0.5370    0.5010 N.pl3     1 8K81        0.0000
     18 C06         2.6540   -0.6810   -0.0300 C.2       1 8K81        0.0000
     19 O07         3.6110   -1.4000   -0.2450 O.2       1 8K81        0.0000
     20 N08         1.4180   -1.1270   -0.3250 N.pl3     1 8K81        0.0000
     21 C09         1.2410   -2.4620   -0.9030 C.3       1 8K81        0.0000
     22 C11         0.8800   -4.8790   -0.3830 C.3       1 8K81        0.0000
     23 O12         0.7160   -5.8340    0.6670 O.3       1 8K81        0.0000
     24 N15        -0.7440    1.5040    0.5790 N.pl3     1 8K81        0.0000
     25 N17        -0.9990   -0.4750   -0.2780 N.2       1 8K81        0.0000
     26 C19        -3.8100    0.7680    1.4610 C.3       1 8K81        0.0000
     27 C20        -5.2750    0.3600    1.0360 C.3       1 8K81        0.0000
     28 O28         2.0170    2.4660    1.2360 O.2       1 8K81        0.0000
     29 H1          1.9490   -3.4800    0.8590 H         1 8K81        0.0000
     30 H2         -5.8470   -1.1420   -0.4590 H         1 8K81        0.0000
     31 H3         -4.5850   -1.6950    0.6930 H         1 8K81        0.0000
     32 H4         -3.2040   -1.0070   -1.2460 H         1 8K81        0.0000
     33 H5         -4.1020    0.7880   -2.7270 H         1 8K81        0.0000
     34 H6         -5.6150    0.0500   -2.1010 H         1 8K81        0.0000
     35 H7         -5.4200    2.6500   -1.6310 H         1 8K81        0.0000
     36 H8         -3.5650    2.9430    0.2700 H         1 8K81        0.0000
     37 H9         -2.9120    2.4780   -1.3380 H         1 8K81        0.0000
     38 H10        -5.9770    2.3740    0.8050 H         1 8K81        0.0000
     39 H11        -6.8380    1.1820   -0.1810 H         1 8K81        0.0000
     40 H12         7.8530    3.1690   -1.0750 H         1 8K81        0.0000
     41 H13         6.8580    2.1590   -2.1510 H         1 8K81        0.0000
     42 H14         6.2280    3.7130   -1.5540 H         1 8K81        0.0000
     43 H15         6.8520    1.2680    0.1630 H         1 8K81        0.0000
     44 H16         6.2220    2.8220    0.7600 H         1 8K81        0.0000
     45 H17         4.2070    2.5490   -0.6590 H         1 8K81        0.0000
     46 H18         4.8370    0.9950   -1.2550 H         1 8K81        0.0000
     47 H19         4.8310    0.1050    1.0590 H         1 8K81        0.0000
     48 H20         4.2010    1.6590    1.6560 H         1 8K81        0.0000
     49 H21         2.1190   -2.7200   -1.4950 H         1 8K81        0.0000
     50 H22        -0.0030   -4.8840   -1.0210 H         1 8K81        0.0000
     51 H23         1.7580   -5.1370   -0.9760 H         1 8K81        0.0000
     52 H24         0.5940   -6.7420    0.3560 H         1 8K81        0.0000
     53 H25        -0.9480    2.3850    0.9310 H         1 8K81        0.0000
     54 H27        -3.3610    0.0110    2.1040 H         1 8K81        0.0000
     55 H28        -3.7820    1.7500    1.9340 H         1 8K81        0.0000
     56 H29        -5.9110    0.1130    1.8860 H         1 8K81        0.0000
     57 H30         0.1880   -3.2270    0.8140 H         1 8K81        0.0000
     58 H31         0.3570   -2.4670   -1.5410 H         1 8K81        0.0000
@<TRIPOS>BOND
     1   13   14 1
     2   14   15 1
     3   15   16 1
     4   16   17 1
     5   18   19 2
     6   17   18 1
     7   12   17 1
     8   12   28 2
     9   18   20 1
    10    3   12 1
    11   20   21 1
    12    2   20 1
    13    2    3 2
    14    3   24 1
    15    1   21 1
    16    2   25 1
    17    1   22 1
    18    4   24 1
    19   22   23 1
    20    4   25 2
    21    4    5 1
    22    5   26 1
    23   26   27 1
    24    5   10 1
    25    5    7 1
    26    9   10 1
    27   11   27 1
    28    6   27 1
    29    6    7 1
    30    7    8 1
    31    9   11 1
    32    8    9 1
    33    1   29 1
    34    6   30 1
    35    6   31 1
    36    7   32 1
    37    8   33 1
    38    8   34 1
    39    9   35 1
    40   10   36 1
    41   10   37 1
    42   11   38 1
    43   11   39 1
    44   13   40 1
    45   13   41 1
    46   13   42 1
    47   14   43 1
    48   14   44 1
    49   15   45 1
    50   15   46 1
    51   16   47 1
    52   16   48 1
    53   21   49 1
    54   22   50 1
    55   22   51 1
    56   23   52 1
    57   24   53 1
    58   26   54 1
    59   26   55 1
    60   27   56 1
    61    1   57 1
    62   21   58 1
@<TRIPOS>SUBSTRUCTURE
     1 8K81        1 RESIDUE           4 A     8K8     0 ROOT
