# created with PyMOL 2.3.5
@<TRIPOS>MOLECULE
NGI
65 68 1                 
SMALL
USER_CHARGES
@<TRIPOS>ATOM
1	  C1	-11.102	2.067	0.201	C.3	1	NGI0	0.000	
2	  N1	-8.799	1.269	0.396	N.pl3	1	NGI0	0.000	
3	  O1	-8.100	-0.817	0.683	O.2	1	NGI0	0.000	
4	  C2	-10.201	0.845	0.389	C.3	1	NGI0	0.000	
5	  N2	-3.383	-1.122	0.074	N.pl3	1	NGI0	0.000	
6	  O2	-5.513	-0.336	0.818	O.3	1	NGI0	0.000	
7	  C3	-7.820	0.356	0.550	C.2	1	NGI0	0.000	
8	  N3	-2.822	-3.189	-0.348	N.2	1	NGI0	0.000	
9	  O3	-3.615	1.908	-1.158	O.3	1	NGI0	0.000	
10	  C4	-6.377	0.791	0.558	C.3	1	NGI0	0.000	
11	  N4	0.096	-4.117	-0.589	N.pl3	1	NGI0	0.000	
12	  O4	-6.014	2.721	-0.898	O.3	1	NGI0	0.000	
13	  C5	-4.214	0.058	0.323	C.3	1	NGI0	0.000	
14	  N5	0.597	-1.854	-0.161	N.2	1	NGI0	0.000	
15	  O5	12.325	1.641	0.184	O.3	1	NGI0	0.000	
16	  C6	-4.504	0.801	-1.000	C.3	1	NGI0	0.000	
17	  N6	1.200	0.361	0.269	N.pl3	1	NGI0	0.000	
18	  O6	11.695	-0.439	-0.219	O.co2	1	NGI0	0.000	
19	  C7	-5.960	1.294	-0.842	C.3	1	NGI0	0.000	
20	  N7	-1.047	-0.257	0.200	N.2	1	NGI0	0.000	
21	  C8	-3.831	-2.387	-0.171	C.2	1	NGI0	0.000	
22	  C9	-1.666	-2.490	-0.236	C.2	1	NGI0	0.000	
23	 C10	-0.301	-2.818	-0.329	C.2	1	NGI0	0.000	
24	 C11	0.224	-0.608	0.103	C.2	1	NGI0	0.000	
25	 C12	2.616	0.002	0.153	C.3	1	NGI0	0.000	
26	 C13	3.478	1.246	0.378	C.3	1	NGI0	0.000	
27	 C14	4.934	0.877	0.258	C.2	1	NGI0	0.000	
28	 C15	5.565	0.945	-0.970	C.2	1	NGI0	0.000	
29	 C16	6.901	0.606	-1.080	C.2	1	NGI0	0.000	
30	 C17	7.605	0.198	0.038	C.2	1	NGI0	0.000	
31	 C18	9.061	-0.171	-0.083	C.3	1	NGI0	0.000	
32	 C19	9.923	1.072	0.143	C.3	1	NGI0	0.000	
33	 C20	11.379	0.702	0.023	C.2	1	NGI0	0.000	
34	 C21	6.974	0.130	1.265	C.2	1	NGI0	0.000	
35	 C22	5.640	0.475	1.377	C.2	1	NGI0	0.000	
36	 C23	-2.012	-1.157	0.039	C.2	1	NGI0	0.000	
37	  H1	-12.146	1.752	0.195	 H	1	NGI0	0.000	
38	 H1A	-10.939	2.769	1.019	 H	1	NGI0	0.000	
39	 H1B	-10.864	2.552	-0.746	 H	1	NGI0	0.000	
40	 HN1	-8.575	2.207	0.290	 H	1	NGI0	0.000	
41	  H2	-10.439	0.361	1.336	 H	1	NGI0	0.000	
42	 H2A	-10.365	0.144	-0.429	 H	1	NGI0	0.000	
43	 HO3	-3.753	2.410	-1.973	 H	1	NGI0	0.000	
44	  H4	-6.220	1.570	1.305	 H	1	NGI0	0.000	
45	 HN4	1.040	-4.332	-0.651	 H	1	NGI0	0.000	
46	HN4A	-0.568	-4.813	-0.710	 H	1	NGI0	0.000	
47	 HO4	-6.896	3.088	-0.745	 H	1	NGI0	0.000	
48	  H5	-3.724	0.724	1.034	 H	1	NGI0	0.000	
49	 HO5	13.245	1.356	0.098	 H	1	NGI0	0.000	
50	  H6	-4.419	0.120	-1.847	 H	1	NGI0	0.000	
51	 HN6	0.947	1.276	0.463	 H	1	NGI0	0.000	
52	  H7	-6.597	0.856	-1.610	 H	1	NGI0	0.000	
53	  H8	-4.870	-2.680	-0.213	 H	1	NGI0	0.000	
54	 H12	2.863	-0.752	0.901	 H	1	NGI0	0.000	
55	H12A	2.808	-0.398	-0.843	 H	1	NGI0	0.000	
56	 H13	3.231	1.999	-0.370	 H	1	NGI0	0.000	
57	H13A	3.285	1.645	1.374	 H	1	NGI0	0.000	
58	 H15	5.015	1.263	-1.843	 H	1	NGI0	0.000	
59	 H16	7.394	0.659	-2.039	 H	1	NGI0	0.000	
60	 H18	9.307	-0.925	0.665	 H	1	NGI0	0.000	
61	H18A	9.253	-0.571	-1.078	 H	1	NGI0	0.000	
62	 H19	9.677	1.826	-0.605	 H	1	NGI0	0.000	
63	H19A	9.731	1.472	1.139	 H	1	NGI0	0.000	
64	 H21	7.524	-0.188	2.139	 H	1	NGI0	0.000	
65	 H22	5.146	0.422	2.336	 H	1	NGI0	0.000	
@<TRIPOS>BOND
1 1 4 1
2 1 37 1
3 1 38 1
4 1 39 1
5 2 7 1
6 2 4 1
7 2 40 1
8 3 7 2
9 4 41 1
10 4 42 1
11 5 36 1
12 5 21 1
13 5 13 1
14 6 13 1
15 6 10 1
16 7 10 1
17 8 22 1
18 8 21 2
19 9 16 1
20 9 43 1
21 10 19 1
22 10 44 1
23 11 23 1
24 11 45 1
25 11 46 1
26 12 19 1
27 12 47 1
28 13 16 1
29 13 48 1
30 14 23 2
31 14 24 1
32 15 33 1
33 15 49 1
34 16 19 1
35 16 50 1
36 17 25 1
37 17 24 1
38 17 51 1
39 18 33 2
40 19 52 1
41 20 24 2
42 20 36 1
43 21 53 1
44 22 23 1
45 22 36 2
46 25 26 1
47 25 54 1
48 25 55 1
49 26 27 1
50 26 56 1
51 26 57 1
52 27 35 2
53 27 28 1
54 28 29 2
55 28 58 1
56 29 30 1
57 29 59 1
58 30 31 1
59 30 34 2
60 31 32 1
61 31 60 1
62 31 61 1
63 32 33 1
64 32 62 1
65 32 63 1
66 34 35 1
67 34 64 1
68 35 65 1
@<TRIPOS>SUBSTRUCTURE
1	NGI0	1	GROUP	1 ****	NGI
