@<TRIPOS>MOLECULE
8UN
66 71 1 0 0 
SMALL
USER_CHARGES


@<TRIPOS>ATOM
  1 C1      -0.9200    14.1590    48.7620 C.ar  1 Q8UN  -0.1500 
  2 H1      -1.7397    14.8553    48.8602 H     1 Q8UN   0.1500 
  3 C2      -0.3640    13.9110    47.4910 C.ar  1 Q8UN  -0.1090 
  4 H2      -0.7531    14.4140    46.6181 H     1 Q8UN   0.1500 
  5 C3       0.7050    13.0000    47.3700 C.ar  1 Q8UN   0.3090 
  6 C4       1.2290    12.3350    48.5120 C.ar  1 Q8UN   0.3090 
  7 C5       0.6660    12.5990    49.7760 C.ar  1 Q8UN  -0.1090 
  8 H5       1.0619    12.1062    50.6517 H     1 Q8UN   0.1500 
  9 C6      -0.4160    13.5060    49.9090 C.ar  1 Q8UN   0.0862 
 10 C12     -1.4600    12.4990    53.3890 C.ar  1 Q8UN   0.1170 
 11 C13     -1.7770    13.5560    54.2780 C.ar  1 Q8UN  -0.1500 
 12 H13     -1.6829    14.5806    53.9498 H     1 Q8UN   0.1500 
 13 C14     -2.2140    13.2770    55.5870 C.ar  1 Q8UN  -0.1500 
 14 H14     -2.4554    14.0888    56.2572 H     1 Q8UN   0.1500 
 15 C15     -2.3380    11.9450    56.0270 C.ar  1 Q8UN   0.0730 
 16 C16     -2.0230    10.8880    55.1500 C.ar  1 Q8UN  -0.1500 
 17 H16     -2.1174     9.8648    55.4824 H     1 Q8UN   0.1500 
 18 C17     -1.5850    11.1650    53.8400 C.ar  1 Q8UN  -0.1500 
 19 H17     -1.3424    10.3503    53.1738 H     1 Q8UN   0.1500 
 20 C25      2.2040    14.6750    43.1850 C.3   1 Q8UN  -0.1600 
 21 H251     1.4695    14.3129    42.4656 H     1 Q8UN   0.0800 
 22 H252     3.1404    14.1331    43.0522 H     1 Q8UN   0.0800 
 23 C26      1.6750    14.4240    44.6150 C.3   1 Q8UN  -0.0800 
 24 H26      0.7275    14.9486    44.7377 H     1 Q8UN   0.0800 
 25 C27      2.7160    14.9780    45.6130 C.3   1 Q8UN  -0.1600 
 26 H271     3.6622    14.4575    45.4650 H     1 Q8UN   0.0800 
 27 H272     2.3613    14.8050    46.6290 H     1 Q8UN   0.0800 
 28 C29      3.4070    16.7810    43.9790 C.3   1 Q8UN  -0.1600 
 29 H291     3.4485    17.8607    43.8354 H     1 Q8UN   0.0800 
 30 H292     4.4013    16.3572    43.8380 H     1 Q8UN   0.0800 
 31 C30     -2.7910    11.6720    57.3830 C.1   1 Q8UN   0.4841 
 32 N1       2.2620    11.4960    48.1730 N.pl3 1 Q8UN  -0.7000 
 33 H1       2.8121    10.9024    48.7773 H     1 Q8UN   0.4500 
 34 C7       2.3630    11.6550    46.8510 C.cat 1 Q8UN   0.7830 
 35 N2       1.4730    12.5320    46.2990 N.pl3 1 Q8UN  -0.7640 
 36 C8       3.3780    10.9020    46.1220 C.ar  1 Q8UN   0.0170 
 37 C9       1.3200    12.9340    44.8910 C.3   1 Q8UN   0.4340 
 38 H9       2.0814    12.3939    44.3283 H     1 Q8UN   0.0800 
 39 C10     -0.0330    12.4760    44.3120 C.3   1 Q8UN  -0.2400 
 40 H101    -0.1083    12.7914    43.2713 H     1 Q8UN   0.0800 
 41 H102    -0.8442    12.9230    44.8867 H     1 Q8UN   0.0800 
 42 H103    -0.1034    11.3897    44.3685 H     1 Q8UN   0.0800 
 43 C11     -1.0210    13.7750    51.2560 C.2   1 Q8UN   0.5438 
 44 N3      -1.0070    12.6950    52.0560 N.am  1 Q8UN  -0.5470 
 45 H3      -0.6005    11.8729    51.6329 H     1 Q8UN   0.3700 
 46 O1      -1.4720    14.8850    51.5330 O.2   1 Q8UN  -0.5700 
 47 C18      4.6800    11.4280    46.0500 C.ar  1 Q8UN  -0.1500 
 48 H18      4.9153    12.3719    46.5191 H     1 Q8UN   0.1500 
 49 C19      5.6650    10.7140    45.3640 C.ar  1 Q8UN   0.0825 
 50 C20      5.3860     9.5160    44.7490 C.ar  1 Q8UN   0.0825 
 51 C21      4.1010     8.9490    44.8000 C.ar  1 Q8UN  -0.1500 
 52 H21      3.8916     8.0017    44.3255 H     1 Q8UN   0.1500 
 53 C22      3.0900     9.6570    45.4920 C.ar  1 Q8UN   0.1110 
 54 O2       6.5180     9.0450    44.1670 O.3   1 Q8UN  -0.3625 
 55 C23      7.5500     9.8550    44.6720 C.3   1 Q8UN   0.4000 
 56 H231     8.2509    10.1020    43.8746 H     1 Q8UN   0.0800 
 57 H232     8.0767     9.3300    45.4689 H     1 Q8UN   0.0800 
 58 O3       6.9690    11.0290    45.1770 O.3   1 Q8UN  -0.3625 
 59 BR1      1.3450     8.8960    45.5520 Br    1 Q8UN  -0.1110 
 60 C24      2.4520    16.1740    42.9380 C.3   1 Q8UN  -0.1600 
 61 H241     1.4989    16.7006    42.9861 H     1 Q8UN   0.0800 
 62 H242     2.8869    16.2997    41.9465 H     1 Q8UN   0.0800 
 63 C28      2.9360    16.4850    45.4090 C.3   1 Q8UN  -0.1600 
 64 H281     3.6915    16.8339    46.1130 H     1 Q8UN   0.0800 
 65 H282     1.9987    17.0105    45.5920 H     1 Q8UN   0.0800 
 66 N4      -3.1520    11.4620    58.4630 N.1   1 Q8UN  -0.5571 
@<TRIPOS>BOND
  1   1   2  1   
  2   1   3  ar  
  3   1   9  ar  
  4   3   4  1   
  5   3   5  ar  
  6   5   6  ar  
  7   5  35  1   
  8   6   7  ar  
  9   6  32  1   
 10   7   8  1   
 11   7   9  ar  
 12   9  43  1   
 13  10  11  ar  
 14  10  18  ar  
 15  10  44  1   
 16  11  12  1   
 17  11  13  ar  
 18  13  14  1   
 19  13  15  ar  
 20  15  16  ar  
 21  15  31  1   
 22  16  17  1   
 23  16  18  ar  
 24  18  19  1   
 25  20  21  1   
 26  20  22  1   
 27  20  23  1   
 28  20  60  1   
 29  23  24  1   
 30  23  25  1   
 31  23  37  1   
 32  25  26  1   
 33  25  27  1   
 34  25  63  1   
 35  28  29  1   
 36  28  30  1   
 37  28  60  1   
 38  28  63  1   
 39  31  66  3   
 40  32  33  1   
 41  32  34  ar  
 42  34  35  ar  
 43  34  36  1   
 44  35  37  1   
 45  36  47  ar  
 46  36  53  ar  
 47  37  38  1   
 48  37  39  1   
 49  39  40  1   
 50  39  41  1   
 51  39  42  1   
 52  43  44  am  
 53  43  46  2   
 54  44  45  1   
 55  47  48  1   
 56  47  49  ar  
 57  49  50  ar  
 58  49  58  1   
 59  50  51  ar  
 60  50  54  1   
 61  51  52  1   
 62  51  53  ar  
 63  53  59  1   
 64  54  55  1   
 65  55  56  1   
 66  55  57  1   
 67  55  58  1   
 68  60  61  1   
 69  60  62  1   
 70  63  64  1   
 71  63  65  1   
@<TRIPOS>SUBSTRUCTURE
  1 Q8UN   6 GROUP 4 L **** 0

# MOE 2019.01 (io_trps.svl 2018.10)
