# created with PyMOL 2.3.5
@<TRIPOS>MOLECULE
8UN
65 70 1 0 0
SMALL
USER_CHARGES


@<TRIPOS>ATOM
      1 C1         -2.4650    1.5340    0.6460 C.2       1 8UN1        0.0000
      2 C2         -1.1480    1.8340    0.8400 C.2       1 8UN1        0.0000
      3 C3         -0.1680    0.8840    0.5730 C.2       1 8UN1        0.0000
      4 C4         -0.5310   -0.3920    0.1010 C.2       1 8UN1        0.0000
      5 C5         -1.8780   -0.6950   -0.0950 C.2       1 8UN1        0.0000
      6 C6         -2.8450    0.2700    0.1780 C.2       1 8UN1        0.0000
      7 C12        -6.5630    0.5580    0.1670 C.2       1 8UN1        0.0000
      8 C13        -6.9880   -0.7200    0.5160 C.2       1 8UN1        0.0000
      9 C14        -8.3230   -1.0480    0.4430 C.2       1 8UN1        0.0000
     10 C15        -9.2530   -0.0940    0.0180 C.2       1 8UN1        0.0000
     11 C16        -8.8230    1.1890   -0.3310 C.2       1 8UN1        0.0000
     12 C17        -7.4860    1.5100   -0.2560 C.2       1 8UN1        0.0000
     13 C25         3.9310    3.5050    0.4560 C.3       1 8UN1        0.0000
     14 C26         2.9230    2.4720   -0.0520 C.3       1 8UN1        0.0000
     15 C27         2.0400    3.1080   -1.1280 C.3       1 8UN1        0.0000
     16 C29         3.9220    4.6160   -1.7810 C.3       1 8UN1        0.0000
     17 C30       -10.6430   -0.4310   -0.0590 C.1       1 8UN1        0.0000
     18 N1          0.6150   -1.0970   -0.0700 N.2       1 8UN1        0.0000
     19 C7          1.6420   -0.3510    0.2600 C.2       1 8UN1        0.0000
     20 N2          1.2080    0.8840    0.6640 N.pl3     1 8UN1        0.0000
     21 C8          3.0550   -0.7790    0.2040 C.2       1 8UN1        0.0000
     22 C9          2.0490    1.9970    1.1100 C.3       1 8UN1        0.0000
     23 C10         2.9410    1.5320    2.2620 C.3       1 8UN1        0.0000
     24 C11        -4.2730   -0.0430   -0.0220 C.2       1 8UN1        0.0000
     25 N3         -5.2110    0.8870    0.2470 N.pl3     1 8UN1        0.0000
     26 O1         -4.6050   -1.1400   -0.4290 O.2       1 8UN1        0.0000
     27 C18         4.0710    0.1150    0.5500 C.2       1 8UN1        0.0000
     28 C19         5.3910   -0.2880    0.4970 C.2       1 8UN1        0.0000
     29 C20         5.7080   -1.5870    0.0970 C.2       1 8UN1        0.0000
     30 C21         4.6990   -2.4740   -0.2470 C.2       1 8UN1        0.0000
     31 C22         3.3780   -2.0790   -0.1890 C.2       1 8UN1        0.0000
     32 O2          7.0650   -1.7300    0.1230 O.3       1 8UN1        0.0000
     33 C23         7.5520   -0.6480    0.9380 C.3       1 8UN1        0.0000
     34 O3          6.5510    0.3770    0.7780 O.3       1 8UN1        0.0000
     35 BR1         2.0070   -3.2930   -0.6600 Br        1 8UN1        0.0000
     36 C24         4.8050    3.9810   -0.7060 C.3       1 8UN1        0.0000
     37 C28         2.9150    3.5830   -2.2900 C.3       1 8UN1        0.0000
     38 N4        -11.7450   -0.6980   -0.1200 N.1       1 8UN1        0.0000
     39 H1         -3.2210    2.2760    0.8600 H         1 8UN1        0.0000
     40 H2         -0.8650    2.8120    1.2020 H         1 8UN1        0.0000
     41 H3         -2.1700   -1.6700   -0.4560 H         1 8UN1        0.0000
     42 H4         -6.2690   -1.4570    0.8430 H         1 8UN1        0.0000
     43 H5         -8.6520   -2.0400    0.7130 H         1 8UN1        0.0000
     44 H6         -9.5380    1.9290   -0.6600 H         1 8UN1        0.0000
     45 H7         -7.1530    2.5010   -0.5260 H         1 8UN1        0.0000
     46 H8          3.3970    4.3550    0.8810 H         1 8UN1        0.0000
     47 H9          4.5600    3.0520    1.2230 H         1 8UN1        0.0000
     48 H10         3.4580    1.6220   -0.4770 H         1 8UN1        0.0000
     49 H11         1.3230    2.3720   -1.4910 H         1 8UN1        0.0000
     50 H12         1.5060    3.9580   -0.7040 H         1 8UN1        0.0000
     51 H13         3.3880    5.4660   -1.3570 H         1 8UN1        0.0000
     52 H14         4.5450    4.9550   -2.6090 H         1 8UN1        0.0000
     53 H15         1.4160    2.8180    1.4480 H         1 8UN1        0.0000
     54 H16         3.8720    2.0990    2.2520 H         1 8UN1        0.0000
     55 H17         2.4270    1.6960    3.2090 H         1 8UN1        0.0000
     56 H18         3.1610    0.4710    2.1470 H         1 8UN1        0.0000
     57 H19        -4.9450    1.7860    0.4950 H         1 8UN1        0.0000
     58 H20         3.8250    1.1200    0.8590 H         1 8UN1        0.0000
     59 H21         4.9480   -3.4780   -0.5560 H         1 8UN1        0.0000
     60 H22         7.6260   -0.9570    1.9800 H         1 8UN1        0.0000
     61 H23         8.5170   -0.2970    0.5720 H         1 8UN1        0.0000
     62 H24         5.5230    4.7160   -0.3430 H         1 8UN1        0.0000
     63 H25         5.3390    3.1300   -1.1300 H         1 8UN1        0.0000
     64 H26         3.4490    2.7330   -2.7140 H         1 8UN1        0.0000
     65 H27         2.2860    4.0360   -3.0570 H         1 8UN1        0.0000
@<TRIPOS>BOND
     1   13   36 1
     2   16   36 1
     3   13   14 1
     4   16   37 1
     5   32   33 1
     6   29   32 1
     7   22   23 1
     8   14   22 1
     9   14   15 1
    10   33   34 1
    11   29   30 2
    12   28   29 1
    13   30   31 1
    14   20   22 1
    15   28   34 1
    16   27   28 2
    17   15   37 1
    18   31   35 1
    19   21   31 2
    20   21   27 1
    21   19   21 1
    22   19   20 1
    23    3   20 1
    24   18   19 2
    25    2    3 2
    26    3    4 1
    27    1    2 1
    28    4   18 1
    29    4    5 2
    30    1    6 2
    31    5    6 1
    32    6   24 1
    33   24   26 2
    34   24   25 1
    35    7   25 1
    36    7   12 2
    37    7    8 1
    38   11   12 1
    39    8    9 2
    40   10   11 2
    41    9   10 1
    42   10   17 1
    43   17   38 3
    44    1   39 1
    45    2   40 1
    46    5   41 1
    47    8   42 1
    48    9   43 1
    49   11   44 1
    50   12   45 1
    51   13   46 1
    52   13   47 1
    53   14   48 1
    54   15   49 1
    55   15   50 1
    56   16   51 1
    57   16   52 1
    58   22   53 1
    59   23   54 1
    60   23   55 1
    61   23   56 1
    62   25   57 1
    63   27   58 1
    64   30   59 1
    65   33   60 1
    66   33   61 1
    67   36   62 1
    68   36   63 1
    69   37   64 1
    70   37   65 1
@<TRIPOS>SUBSTRUCTURE
     1 8UN1        1 RESIDUE           4 A     8UN     0 ROOT
