@<TRIPOS>MOLECULE
U0G
23 24 1 0 0
SMALL
NO_CHARGES


@<TRIPOS>ATOM
      1 C10        98.2650  109.1630   97.4690 C.3       1 U0G502      0.0000
      2 C13        96.9660  105.5690   94.2160 C.3       1 U0G502      0.0000
      3 C17        96.7140  107.2270   90.7480 C.ar      1 U0G502      0.0000
      4 C20        98.8280  106.3560   89.1100 C.ar      1 U0G502      0.0000
      5 C21        97.6590  105.5970   89.1910 C.ar      1 U0G502      0.0000
      6 C22        96.6010  106.0240   90.0040 C.ar      1 U0G502      0.0000
      7 C01        99.4810  102.4080   95.4250 C.3       1 U0G502      0.0000
      8 C03        98.6860  104.5910   95.7720 C.ar      1 U0G502      0.0000
      9 C04        99.6000  104.6800   96.8810 C.ar      1 U0G502      0.0000
     10 C05        99.7270  105.8910   97.5890 C.ar      1 U0G502      0.0000
     11 C06       100.7010  105.9900   98.7720 C.1       1 U0G502      0.0000
     12 C08        98.9880  106.9690   97.2250 C.ar      1 U0G502      0.0000
     13 C11        98.0630  106.8750   96.1010 C.ar      1 U0G502      0.0000
     14 C12        97.9400  105.6780   95.4040 C.ar      1 U0G502      0.0000
     15 C14        96.5040  106.9520   93.6940 C.3       1 U0G502      0.0000
     16 C16        95.5280  107.6960   91.6540 C.3       1 U0G502      0.0000
     17 C18        97.8850  107.9900   90.6690 C.ar      1 U0G502      0.0000
     18 C19        98.9460  107.5610   89.8520 C.ar      1 U0G502      0.0000
     19 N07       101.4100  106.0610   99.6320 N.1       1 U0G502      0.0000
     20 N15        95.3690  106.7980   92.8020 N.4       1 U0G502      0.0000
     21 O02        98.5570  103.3730   95.0570 O.3       1 U0G502      0.0000
     22 O09        99.1120  108.1590   97.9200 O.3       1 U0G502      0.0000
     23 O23        95.3770  105.2250   90.0860 O.3       1 U0G502      0.0000
@<TRIPOS>BOND
     1    1   22 1
     2    2   14 1
     3    2   15 1
     4    3    6 ar
     5    3   16 1
     6    3   17 ar
     7    4    5 ar
     8    4   18 ar
     9    5    6 ar
    10    6   23 1
    11    7   21 1
    12    8    9 ar
    13    8   14 ar
    14    8   21 1
    15    9   10 ar
    16   10   11 1
    17   10   12 ar
    18   11   19 3
    19   12   13 ar
    20   12   22 1
    21   13   14 ar
    22   15   20 1
    23   16   20 1
    24   17   18 ar
@<TRIPOS>SUBSTRUCTURE
     1 U0G502      1 RESIDUE           4 A     U0G     0 ROOT
