@<TRIPOS>MOLECULE
    9DK
   52    53     0     0     0
SMALL
USER_CHARGES


@<TRIPOS>ATOM
      1 C67       -19.4640   23.9220   10.1420 C.2        1 9DK      0.000000
      2 C69       -20.2570   24.8710   11.0930 C.3        1 9DK      0.000000
      3 C70       -19.3000   25.9900   11.6240 C.3        1 9DK      0.000000
      4 C71       -20.7920   24.0960   12.3300 C.3        1 9DK      0.000000
      5 C72       -21.4720   25.4870   10.3380 C.2        1 9DK      0.000000
      6 C75       -23.4620   27.0740   10.6130 C.3        1 9DK      0.000000
      7 C76       -24.2950   26.5400    9.4420 C.3        1 9DK      0.000000
      8 C77       -24.9610   25.2420    9.7850 C.ar       1 9DK      0.000000
      9 C78       -24.5890   23.9480    9.4590 C.ar       1 9DK      0.000000
     10 C80       -26.4270   24.0150   10.6340 C.ar       1 9DK      0.000000
     11 N74       -22.2670   26.3260   11.0310 N.am       1 9DK      0.000000
     12 N79       -25.5540   23.1600   10.0210 N.ar       1 9DK      0.000000
     13 N81       -26.0760   25.2670   10.4940 N.ar       1 9DK      0.000000
     14 O68       -19.9470   22.8600    9.7430 O.2        1 9DK      0.000000
     15 O73       -21.6670   25.2050    9.1490 O.2        1 9DK      0.000000
     16 H752      -23.1332   28.0770   10.3410 H          1 9DK      0.000000
     17 H753      -24.1199   27.1617   11.4776 H          1 9DK      0.000000
     18 H762      -23.6407   26.3857    8.5840 H          1 9DK      0.000000
     19 H763      -25.0573   27.2745    9.1820 H          1 9DK      0.000000
     20 H78       -23.7283   23.6323    8.8881 H          1 9DK      0.000000
     21 H80       -27.3062   23.6932   11.1724 H          1 9DK      0.000000
     22 H74       -21.9981   26.4635   11.9948 H          1 9DK      0.000000
     23 H79       -25.6106   22.1521    9.9898 H          1 9DK      0.000000
     24 H711      -21.4652   23.3046   12.0003 H          1 9DK      0.000000
     25 H712      -19.9551   23.6577   12.8737 H          1 9DK      0.000000
     26 H713      -21.3305   24.7822   12.9837 H          1 9DK      0.000000
     27 H701      -19.7983   26.5494   12.4157 H          1 9DK      0.000000
     28 H702      -19.0436   26.6657   10.8081 H          1 9DK      0.000000
     29 H703      -18.3914   25.5344   12.0176 H          1 9DK      0.000000
     30 X         -17.4810   24.1010    7.4470 C.2        2 9DK      0.000000
     31 X         -17.2210   23.7130    8.9120 C.3        2 9DK      0.000000
     32 X         -16.9590   22.1800    9.0040 C.3        2 9DK      0.000000
     33 X         -17.1170   21.5880   10.3820 C.ar       2 9DK      0.000000
     34 X         -16.8640   22.2760   11.5330 N.ar       2 9DK      0.000000
     35 X         -17.0860   21.5020   12.5930 N.ar       2 9DK      0.000000
     36 X         -17.4880   20.2960   12.0520 N.ar       2 9DK      0.000000
     37 X         -17.5000   20.3710   10.6660 N.ar       2 9DK      0.000000
     38 Y0        -18.2310   24.3360    9.7840 N.am       2 9DK      0.000000
     39 X         -16.6530   24.8020    6.8750 O.2        2 9DK      0.000000
     40 X         -16.2755   24.1869    9.1759 H          2 9DK      0.000000
     41 X         -15.9389   21.9908    8.6697 H          2 9DK      0.000000
     42 X         -17.6451   21.6703    8.3275 H          2 9DK      0.000000
     43 X         -17.9539   25.2225   10.1808 H          2 9DK      0.000000
     44 X         -17.7374   19.4772   12.5881 H          2 9DK      0.000000
     45 X         -18.6020   23.6580    6.8610 N.am       3 9DK      0.000000
     46 X         -19.0050   23.9340    5.4850 C.3        3 9DK      0.000000
     47 X         -19.1930   25.4410    5.2710 C.2        3 9DK      0.000000
     48 X         -18.7690   25.9540    4.2400 O.2        3 9DK      0.000000
     49 X         -19.2199   23.0852    7.4180 H          3 9DK      0.000000
     50 X         -18.2345   23.5690    4.8059 H          3 9DK      0.000000
     51 X         -19.9432   23.4205    5.2746 H          3 9DK      0.000000
     52 X         -19.6914   26.0422    6.0170 H          3 9DK      0.000000
@<TRIPOS>BOND
     1    1    2 1
     2    1   14 2
     3    1   38 am
     4    2    3 1
     5    2    4 1
     6    2    5 1
     7    3   27 1
     8    3   28 1
     9    3   29 1
    10    4   24 1
    11    4   25 1
    12    4   26 1
    13    5   11 am
    14    5   15 2
    15    6    7 1
    16    6   11 1
    17    6   16 1
    18    6   17 1
    19    7    8 1
    20    7   18 1
    21    7   19 1
    22    8    9 ar
    23    8   13 ar
    24    9   12 ar
    25    9   20 1
    26   10   12 ar
    27   10   13 ar
    28   10   21 1
    29   11   22 1
    30   12   23 1
    31   30   31 1
    32   30   39 2
    33   30   45 am
    34   31   32 1
    35   31   38 1
    36   31   40 1
    37   32   33 1
    38   32   41 1
    39   32   42 1
    40   33   34 ar
    41   33   37 ar
    42   34   35 ar
    43   35   36 ar
    44   36   37 ar
    45   36   44 1
    46   38   43 1
    47   45   46 1
    48   45   49 1
    49   46   47 1
    50   46   50 1
    51   46   51 1
    52   47   48 2
    53   47   52 1
