# created with PyMOL 2.3.5
@<TRIPOS>MOLECULE
7DY
61 63 1                 
SMALL
USER_CHARGES
@<TRIPOS>ATOM
1	 CBF	-5.795	1.376	-0.957	C.2	1	7DY0	0.000	
2	 CBG	-7.044	0.806	-0.783	C.2	1	7DY0	0.000	
3	 CBH	-7.146	-0.342	-0.009	C.2	1	7DY0	0.000	
4	 CBJ	-8.485	-0.998	0.207	C.3	1	7DY0	0.000	
5	 FAC	-9.491	-0.026	0.170	 F	1	7DY0	0.000	
6	 FAD	-8.710	-1.942	-0.801	 F	1	7DY0	0.000	
7	 FAB	-8.497	-1.634	1.453	 F	1	7DY0	0.000	
8	 CBI	-6.007	-0.876	0.559	C.2	1	7DY0	0.000	
9	 NAH	-4.829	-0.310	0.376	N.2	1	7DY0	0.000	
10	 CBD	-4.691	0.781	-0.359	C.2	1	7DY0	0.000	
11	 OAE	-3.461	1.330	-0.521	O.3	1	7DY0	0.000	
12	 CAP	-2.368	0.678	0.129	C.3	1	7DY0	0.000	
13	 CAT	-2.613	0.656	1.639	C.3	1	7DY0	0.000	
14	 CAU	-2.249	-0.757	-0.389	C.3	1	7DY0	0.000	
15	 CAQ	-1.092	1.425	-0.162	C.2	1	7DY0	0.000	
16	 OAF	-1.116	2.418	-0.858	O.2	1	7DY0	0.000	
17	 NAG	0.075	0.990	0.351	N.pl3	1	7DY0	0.000	
18	 CAK	1.316	1.716	0.068	C.3	1	7DY0	0.000	
19	 CAN	1.474	2.864	1.066	C.3	1	7DY0	0.000	
20	 CAJ	2.506	0.762	0.194	C.3	1	7DY0	0.000	
21	 CAM	3.777	1.497	-0.143	C.2	1	7DY0	0.000	
22	 CAR	4.794	1.575	0.786	C.2	1	7DY0	0.000	
23	 CAX	5.971	2.256	0.471	C.2	1	7DY0	0.000	
24	 CBE	7.031	2.341	1.430	C.1	1	7DY0	0.000	
25	 NAI	7.872	2.408	2.191	N.1	1	7DY0	0.000	
26	 CAZ	6.111	2.854	-0.783	C.2	1	7DY0	0.000	
27	 CAY	5.086	2.768	-1.702	C.2	1	7DY0	0.000	
28	 CAS	3.924	2.087	-1.386	C.2	1	7DY0	0.000	
29	 CAL	2.323	-0.412	-0.770	C.3	1	7DY0	0.000	
30	 CAO	3.430	-1.412	-0.559	C.2	1	7DY0	0.000	
31	 CAV	4.608	-1.301	-1.274	C.2	1	7DY0	0.000	
32	 CBA	5.624	-2.218	-1.081	C.2	1	7DY0	0.000	
33	 CBC	5.462	-3.248	-0.171	C.2	1	7DY0	0.000	
34	CLAA	6.737	-4.400	0.073	Cl	1	7DY0	0.000	
35	 CBB	4.282	-3.359	0.544	C.2	1	7DY0	0.000	
36	 CAW	3.270	-2.438	0.354	C.2	1	7DY0	0.000	
37	  H1	-5.679	2.269	-1.553	 H	1	7DY0	0.000	
38	  H2	-7.919	1.245	-1.239	 H	1	7DY0	0.000	
39	  H3	-6.081	-1.770	1.162	 H	1	7DY0	0.000	
40	  H4	-3.536	0.116	1.850	 H	1	7DY0	0.000	
41	  H5	-1.780	0.159	2.135	 H	1	7DY0	0.000	
42	  H6	-2.698	1.678	2.008	 H	1	7DY0	0.000	
43	  H7	-2.075	-0.741	-1.465	 H	1	7DY0	0.000	
44	  H8	-1.416	-1.254	0.107	 H	1	7DY0	0.000	
45	  H9	-3.172	-1.297	-0.178	 H	1	7DY0	0.000	
46	 H10	0.095	0.195	0.907	 H	1	7DY0	0.000	
47	 H11	1.279	2.117	-0.945	 H	1	7DY0	0.000	
48	 H12	2.344	3.463	0.796	 H	1	7DY0	0.000	
49	 H13	0.581	3.489	1.046	 H	1	7DY0	0.000	
50	 H14	1.610	2.457	2.068	 H	1	7DY0	0.000	
51	 H15	2.563	0.387	1.216	 H	1	7DY0	0.000	
52	 H16	4.679	1.111	1.754	 H	1	7DY0	0.000	
53	 H17	7.019	3.382	-1.033	 H	1	7DY0	0.000	
54	 H18	5.193	3.230	-2.673	 H	1	7DY0	0.000	
55	 H19	3.127	2.019	-2.111	 H	1	7DY0	0.000	
56	 H20	1.362	-0.889	-0.584	 H	1	7DY0	0.000	
57	 H21	2.355	-0.046	-1.797	 H	1	7DY0	0.000	
58	 H22	4.735	-0.497	-1.984	 H	1	7DY0	0.000	
59	 H23	6.544	-2.131	-1.639	 H	1	7DY0	0.000	
60	 H24	4.155	-4.163	1.253	 H	1	7DY0	0.000	
61	 H25	2.351	-2.522	0.915	 H	1	7DY0	0.000	
@<TRIPOS>BOND
1 12 13 1
2 11 12 1
3 12 14 1
4 12 15 1
5 10 11 1
6 9 10 2
7 8 9 1
8 4 5 1
9 1 10 1
10 3 8 2
11 15 16 2
12 1 2 2
13 2 3 1
14 3 4 1
15 15 17 1
16 4 6 1
17 4 7 1
18 17 18 1
19 18 19 1
20 18 20 1
21 29 30 1
22 20 29 1
23 30 31 2
24 31 32 1
25 30 36 1
26 20 21 1
27 32 33 2
28 21 28 2
29 27 28 1
30 35 36 2
31 21 22 1
32 33 35 1
33 33 34 1
34 26 27 2
35 22 23 2
36 23 26 1
37 23 24 1
38 24 25 3
39 1 37 1
40 2 38 1
41 8 39 1
42 13 40 1
43 13 41 1
44 13 42 1
45 14 43 1
46 14 44 1
47 14 45 1
48 17 46 1
49 18 47 1
50 19 48 1
51 19 49 1
52 19 50 1
53 20 51 1
54 22 52 1
55 26 53 1
56 27 54 1
57 28 55 1
58 29 56 1
59 29 57 1
60 31 58 1
61 32 59 1
62 35 60 1
63 36 61 1
@<TRIPOS>SUBSTRUCTURE
1	7DY0	1	GROUP	1 ****	7DY
