# created with PyMOL 2.3.5
@<TRIPOS>MOLECULE
ETQ
48 49 1                 
SMALL
USER_CHARGES
@<TRIPOS>ATOM
1	  C1	1.503	-1.217	0.906	C.2	1	ETQ0	0.000	
2	  N1	-1.227	0.610	0.482	N.pl3	1	ETQ0	0.000	
3	  O1	0.647	-2.094	1.489	O.3	1	ETQ0	0.000	
4	 CL1	4.374	1.678	-1.039	Cl	1	ETQ0	0.000	
5	  C2	2.724	-1.656	0.422	C.2	1	ETQ0	0.000	
6	  N2	-3.613	-0.402	-0.642	N.3	1	ETQ0	0.000	
7	  O2	1.721	2.344	0.069	O.3	1	ETQ0	0.000	
8	  C3	3.599	-0.765	-0.172	C.2	1	ETQ0	0.000	
9	  O3	-0.248	1.005	2.436	O.2	1	ETQ0	0.000	
10	  C4	3.265	0.572	-0.291	C.2	1	ETQ0	0.000	
11	  C5	2.047	1.032	0.186	C.2	1	ETQ0	0.000	
12	  C6	1.033	2.738	-1.120	C.3	1	ETQ0	0.000	
13	  C7	1.151	0.135	0.785	C.2	1	ETQ0	0.000	
14	  C8	-0.148	0.611	1.290	C.2	1	ETQ0	0.000	
15	  C9	-2.519	1.083	0.984	C.3	1	ETQ0	0.000	
16	 C10	-3.567	0.978	-0.125	C.3	1	ETQ0	0.000	
17	 C11	-4.965	1.301	0.441	C.3	1	ETQ0	0.000	
18	 C12	-5.559	-0.104	0.728	C.3	1	ETQ0	0.000	
19	 C13	-4.978	-0.934	-0.443	C.3	1	ETQ0	0.000	
20	 C14	-3.233	-0.446	-2.061	C.3	1	ETQ0	0.000	
21	 C15	-3.050	-1.902	-2.495	C.3	1	ETQ0	0.000	
22	 C16	3.103	-3.109	0.546	C.3	1	ETQ0	0.000	
23	 C17	2.520	-3.890	-0.635	C.3	1	ETQ0	0.000	
24	 HN1	-1.147	0.296	-0.433	 H	1	ETQ0	0.000	
25	 HO1	0.768	-2.186	2.444	 H	1	ETQ0	0.000	
26	  H3	4.549	-1.115	-0.547	 H	1	ETQ0	0.000	
27	  H6	0.833	3.809	-1.087	 H	1	ETQ0	0.000	
28	 H6A	1.651	2.510	-1.989	 H	1	ETQ0	0.000	
29	 H6B	0.091	2.194	-1.192	 H	1	ETQ0	0.000	
30	  H9	-2.825	0.472	1.833	 H	1	ETQ0	0.000	
31	 H9A	-2.427	2.123	1.300	 H	1	ETQ0	0.000	
32	 H10	-3.323	1.668	-0.933	 H	1	ETQ0	0.000	
33	 H11	-4.884	1.880	1.361	 H	1	ETQ0	0.000	
34	H11A	-5.568	1.830	-0.297	 H	1	ETQ0	0.000	
35	 H12	-5.211	-0.486	1.688	 H	1	ETQ0	0.000	
36	H12A	-6.648	-0.083	0.689	 H	1	ETQ0	0.000	
37	 H13	-5.576	-0.792	-1.343	 H	1	ETQ0	0.000	
38	H13A	-4.938	-1.990	-0.176	 H	1	ETQ0	0.000	
39	 H14	-4.016	0.017	-2.661	 H	1	ETQ0	0.000	
40	H14A	-2.298	0.096	-2.203	 H	1	ETQ0	0.000	
41	 H15	-2.266	-2.364	-1.895	 H	1	ETQ0	0.000	
42	H15A	-3.985	-2.444	-2.352	 H	1	ETQ0	0.000	
43	H15B	-2.768	-1.934	-3.547	 H	1	ETQ0	0.000	
44	 H16	4.188	-3.204	0.543	 H	1	ETQ0	0.000	
45	H16A	2.705	-3.510	1.478	 H	1	ETQ0	0.000	
46	 H17	1.434	-3.795	-0.632	 H	1	ETQ0	0.000	
47	H17A	2.918	-3.489	-1.567	 H	1	ETQ0	0.000	
48	H17B	2.794	-4.941	-0.545	 H	1	ETQ0	0.000	
@<TRIPOS>BOND
1 1 3 1
2 1 5 2
3 1 13 1
4 2 14 1
5 2 15 1
6 4 10 1
7 5 8 1
8 5 22 1
9 6 16 1
10 6 19 1
11 6 20 1
12 7 11 1
13 7 12 1
14 8 10 2
15 9 14 2
16 10 11 1
17 11 13 2
18 13 14 1
19 15 16 1
20 16 17 1
21 17 18 1
22 18 19 1
23 20 21 1
24 22 23 1
25 2 24 1
26 3 25 1
27 8 26 1
28 12 27 1
29 12 28 1
30 12 29 1
31 15 30 1
32 15 31 1
33 16 32 1
34 17 33 1
35 17 34 1
36 18 35 1
37 18 36 1
38 19 37 1
39 19 38 1
40 20 39 1
41 20 40 1
42 21 41 1
43 21 42 1
44 21 43 1
45 22 44 1
46 22 45 1
47 23 46 1
48 23 47 1
49 23 48 1
@<TRIPOS>SUBSTRUCTURE
1	ETQ0	1	GROUP	1 ****	ETQ
