# created with PyMOL 2.3.5
@<TRIPOS>MOLECULE
ORN
21 20 1                 
SMALL
USER_CHARGES
@<TRIPOS>ATOM
1	   N	0.747	1.775	0.281	N.3	1	ORN0	0.000	
2	  CA	0.791	0.322	0.493	C.3	1	ORN0	0.000	
3	  CB	-0.353	-0.340	-0.275	C.3	1	ORN0	0.000	
4	  CG	-1.692	0.114	0.310	C.3	1	ORN0	0.000	
5	  CD	-2.836	-0.549	-0.459	C.3	1	ORN0	0.000	
6	  NE	-4.121	-0.113	0.104	N.3	1	ORN0	0.000	
7	   C	2.108	-0.218	-0.001	C.2	1	ORN0	0.000	
8	   O	2.766	0.421	-0.789	O.co2	1	ORN0	0.000	
9	 OXT	2.551	-1.408	0.433	O.3	1	ORN0	0.000	
10	   H	0.842	2.000	-0.698	 H	1	ORN0	0.000	
11	  H2	-0.099	2.171	0.663	 H	1	ORN0	0.000	
12	  HA	0.687	0.108	1.557	 H	1	ORN0	0.000	
13	 HB2	-0.300	-0.053	-1.326	 H	1	ORN0	0.000	
14	 HB3	-0.269	-1.424	-0.191	 H	1	ORN0	0.000	
15	 HG2	-1.745	-0.174	1.360	 H	1	ORN0	0.000	
16	 HG3	-1.776	1.197	0.225	 H	1	ORN0	0.000	
17	 HD2	-2.783	-0.262	-1.509	 H	1	ORN0	0.000	
18	 HD3	-2.751	-1.633	-0.374	 H	1	ORN0	0.000	
19	 HE1	-4.197	0.893	0.095	 H	1	ORN0	0.000	
20	 HE2	-4.894	-0.537	-0.387	 H	1	ORN0	0.000	
21	 HXT	3.401	-1.713	0.087	 H	1	ORN0	0.000	
@<TRIPOS>BOND
1 1 2 1
2 1 10 1
3 1 11 1
4 2 3 1
5 2 7 1
6 2 12 1
7 3 4 1
8 3 13 1
9 3 14 1
10 4 5 1
11 4 15 1
12 4 16 1
13 5 6 1
14 5 17 1
15 5 18 1
16 6 19 1
17 6 20 1
18 7 8 2
19 7 9 1
20 9 21 1
@<TRIPOS>SUBSTRUCTURE
1	ORN0	1	GROUP	1 ****	ORN
