# created with PyMOL 2.3.5
@<TRIPOS>MOLECULE
AZJ
59 61 1 0 0
SMALL
USER_CHARGES


@<TRIPOS>ATOM
      1 CAA        10.4390   -1.2010   -0.2490 C.3       1 AZJ1        0.0000
      2 CAB         5.3820    2.8230    0.3840 C.3       1 AZJ1        0.0000
      3 NAC         3.0850   -3.5570   -0.2980 N.1       1 AZJ1        0.0000
      4 OAD        -2.9080   -0.7480    0.8690 O.2       1 AZJ1        0.0000
      5 OAE         7.6670    1.7880    0.4210 O.co2     1 AZJ1        0.0000
      6 OAF        -4.8240   -1.3390   -0.9350 O.2       1 AZJ1        0.0000
      7 OAG        -5.3800    0.7740   -2.0960 O.2       1 AZJ1        0.0000
      8 CAH         3.4940   -2.5030   -0.1840 C.1       1 AZJ1        0.0000
      9 CAI        -9.7330   -0.2660    0.7280 C.2       1 AZJ1        0.0000
     10 CAJ        -8.7920   -1.1270    1.2630 C.2       1 AZJ1        0.0000
     11 CAK        -9.3300    0.9170    0.1390 C.2       1 AZJ1        0.0000
     12 CAL        -7.4500   -0.8030    1.2100 C.2       1 AZJ1        0.0000
     13 CAM        -7.9880    1.2440    0.0910 C.2       1 AZJ1        0.0000
     14 CAN         5.3860   -0.9500   -0.0060 C.2       1 AZJ1        0.0000
     15 CAO         9.5820    0.0370    0.0250 C.3       1 AZJ1        0.0000
     16 CAP        -0.3200    0.0530   -1.1900 C.3       1 AZJ1        0.0000
     17 CAQ        -0.3330   -0.2590    1.2860 C.3       1 AZJ1        0.0000
     18 CAR         1.1630    0.4200   -1.1000 C.3       1 AZJ1        0.0000
     19 CAS         1.1510    0.1170    1.3040 C.3       1 AZJ1        0.0000
     20 CAT        -5.5830    0.7340    0.5640 C.3       1 AZJ1        0.0000
     21 NAU         3.6120    1.1540    0.2010 N.2       1 AZJ1        0.0000
     22 NAV        -3.2720    0.5350   -0.9030 N.pl3     1 AZJ1        0.0000
     23 OAW         8.1770   -0.3240   -0.0370 O.3       1 AZJ1        0.0000
     24 CAX        -2.4670    0.0350    0.0550 C.2       1 AZJ1        0.0000
     25 CAY         7.2830    0.6600    0.1840 C.2       1 AZJ1        0.0000
     26 CAZ         4.9030    1.4030    0.2320 C.2       1 AZJ1        0.0000
     27 CBA        -7.0470    0.3810    0.6210 C.2       1 AZJ1        0.0000
     28 CBB         4.0100   -1.1760   -0.0400 C.2       1 AZJ1        0.0000
     29 CBC         5.8380    0.3670    0.1360 C.2       1 AZJ1        0.0000
     30 CBD         3.1370   -0.0760    0.0680 C.2       1 AZJ1        0.0000
     31 CBE        -1.0190    0.4480    0.1140 C.3       1 AZJ1        0.0000
     32 NBF         1.7740   -0.2820    0.0360 N.pl3     1 AZJ1        0.0000
     33 SBG        -4.8630    0.0810   -0.9680 S.O2      1 AZJ1        0.0000
     34 H1         10.2070   -1.5910   -1.2400 H         1 AZJ1        0.0000
     35 H2         11.4930   -0.9300   -0.2020 H         1 AZJ1        0.0000
     36 H3         10.2260   -1.9640    0.5000 H         1 AZJ1        0.0000
     37 H4          5.6070    3.0200    1.4330 H         1 AZJ1        0.0000
     38 H5          6.2810    2.9700   -0.2140 H         1 AZJ1        0.0000
     39 H6          4.6040    3.5070    0.0460 H         1 AZJ1        0.0000
     40 H7        -10.7810   -0.5210    0.7660 H         1 AZJ1        0.0000
     41 H8         -9.1070   -2.0520    1.7240 H         1 AZJ1        0.0000
     42 H9        -10.0640    1.5870   -0.2840 H         1 AZJ1        0.0000
     43 H10        -6.7150   -1.4750    1.6280 H         1 AZJ1        0.0000
     44 H11        -7.6730    2.1690   -0.3690 H         1 AZJ1        0.0000
     45 H12         6.0850   -1.7700   -0.0820 H         1 AZJ1        0.0000
     46 H13         9.8140    0.4260    1.0170 H         1 AZJ1        0.0000
     47 H14         9.7950    0.7990   -0.7240 H         1 AZJ1        0.0000
     48 H15        -0.7770    0.5860   -2.0240 H         1 AZJ1        0.0000
     49 H16        -0.4210   -1.0210   -1.3460 H         1 AZJ1        0.0000
     50 H17        -0.4330   -1.3380    1.1690 H         1 AZJ1        0.0000
     51 H18        -0.7980    0.0510    2.2210 H         1 AZJ1        0.0000
     52 H19         1.6660    0.1260   -2.0220 H         1 AZJ1        0.0000
     53 H20         1.2630    1.4960   -0.9590 H         1 AZJ1        0.0000
     54 H21         1.2510    1.1950    1.4340 H         1 AZJ1        0.0000
     55 H22         1.6450   -0.3960    2.1290 H         1 AZJ1        0.0000
     56 H23        -5.4700    1.8180    0.5850 H         1 AZJ1        0.0000
     57 H24        -5.0700    0.2980    1.4210 H         1 AZJ1        0.0000
     58 H25        -2.9190    1.1610   -1.5550 H         1 AZJ1        0.0000
     59 H26        -0.9530    1.5280    0.2490 H         1 AZJ1        0.0000
@<TRIPOS>BOND
     1    9   10 2
     2   10   12 1
     3    9   11 1
     4   12   27 2
     5   11   13 2
     6   13   27 1
     7   20   27 1
     8   20   33 1
     9    6   33 2
    10    7   33 2
    11   22   33 1
    12   22   24 1
    13    4   24 2
    14   24   31 1
    15   17   31 1
    16   16   31 1
    17   17   19 1
    18   19   32 1
    19   16   18 1
    20   18   32 1
    21   30   32 1
    22    3    8 3
    23    8   28 1
    24   28   30 2
    25   21   30 1
    26   14   28 1
    27   21   26 2
    28   14   29 2
    29   26   29 1
    30    2   26 1
    31   25   29 1
    32   23   25 1
    33    5   25 2
    34   15   23 1
    35    1   15 1
    36    1   34 1
    37    1   35 1
    38    1   36 1
    39    2   37 1
    40    2   38 1
    41    2   39 1
    42    9   40 1
    43   10   41 1
    44   11   42 1
    45   12   43 1
    46   13   44 1
    47   14   45 1
    48   15   46 1
    49   15   47 1
    50   16   48 1
    51   16   49 1
    52   17   50 1
    53   17   51 1
    54   18   52 1
    55   18   53 1
    56   19   54 1
    57   19   55 1
    58   20   56 1
    59   20   57 1
    60   22   58 1
    61   31   59 1
@<TRIPOS>SUBSTRUCTURE
     1 AZJ1        1 RESIDUE           4 A     AZJ     0 ROOT
