# created with PyMOL 2.3.5
@<TRIPOS>MOLECULE
SOG
48 48 1                 
SMALL
USER_CHARGES
@<TRIPOS>ATOM
1	  C1	-0.632	-0.191	-1.979	C.3	1	SOG0	0.000	
2	  C2	-1.430	0.159	-3.237	C.3	1	SOG0	0.000	
3	  C3	-0.679	-0.364	-4.466	C.3	1	SOG0	0.000	
4	  C4	0.753	0.177	-4.432	C.3	1	SOG0	0.000	
5	  C5	1.386	-0.173	-3.083	C.3	1	SOG0	0.000	
6	  C6	2.829	0.334	-3.053	C.3	1	SOG0	0.000	
7	 C1'	-0.391	-0.151	0.789	C.3	1	SOG0	0.000	
8	 C2'	-0.956	0.240	2.155	C.3	1	SOG0	0.000	
9	 C3'	0.005	-0.213	3.255	C.3	1	SOG0	0.000	
10	 C4'	-0.559	0.177	4.621	C.3	1	SOG0	0.000	
11	 C5'	0.402	-0.276	5.721	C.3	1	SOG0	0.000	
12	 C6'	-0.162	0.114	7.087	C.3	1	SOG0	0.000	
13	 C7'	0.799	-0.339	8.186	C.3	1	SOG0	0.000	
14	 C8'	0.234	0.052	9.553	C.3	1	SOG0	0.000	
15	  S1	-1.532	0.387	-0.514	S.3	1	SOG0	0.000	
16	  O2	-2.721	-0.449	-3.170	O.3	1	SOG0	0.000	
17	  O3	-1.332	0.081	-5.657	O.3	1	SOG0	0.000	
18	  O4	1.515	-0.414	-5.486	O.3	1	SOG0	0.000	
19	  O5	0.646	0.437	-2.029	O.3	1	SOG0	0.000	
20	  O6	3.425	0.002	-1.797	O.3	1	SOG0	0.000	
21	  H1	-0.503	-1.272	-1.921	 H	1	SOG0	0.000	
22	  H2	-1.540	1.241	-3.311	 H	1	SOG0	0.000	
23	  H3	-0.659	-1.454	-4.447	 H	1	SOG0	0.000	
24	  H4	0.737	1.259	-4.557	 H	1	SOG0	0.000	
25	  H5	1.381	-1.255	-2.951	 H	1	SOG0	0.000	
26	 H61	3.396	-0.131	-3.859	 H	1	SOG0	0.000	
27	 H62	2.836	1.416	-3.183	 H	1	SOG0	0.000	
28	H1'1	0.576	0.329	0.645	 H	1	SOG0	0.000	
29	H1'2	-0.270	-1.233	0.742	 H	1	SOG0	0.000	
30	H2'1	-1.924	-0.240	2.299	 H	1	SOG0	0.000	
31	H2'2	-1.077	1.322	2.202	 H	1	SOG0	0.000	
32	H3'1	0.973	0.266	3.111	 H	1	SOG0	0.000	
33	H3'2	0.126	-1.296	3.208	 H	1	SOG0	0.000	
34	H4'1	-1.527	-0.302	4.765	 H	1	SOG0	0.000	
35	H4'2	-0.680	1.259	4.668	 H	1	SOG0	0.000	
36	H5'1	1.370	0.203	5.577	 H	1	SOG0	0.000	
37	H5'2	0.523	-1.358	5.674	 H	1	SOG0	0.000	
38	H6'1	-1.130	-0.365	7.231	 H	1	SOG0	0.000	
39	H6'2	-0.283	1.197	7.134	 H	1	SOG0	0.000	
40	H7'1	1.767	0.140	8.043	 H	1	SOG0	0.000	
41	H7'2	0.920	-1.421	8.139	 H	1	SOG0	0.000	
42	H8'1	0.920	-0.271	10.336	 H	1	SOG0	0.000	
43	H8'2	0.113	1.134	9.600	 H	1	SOG0	0.000	
44	H8'3	-0.733	-0.428	9.697	 H	1	SOG0	0.000	
45	 HO2	-3.158	-0.092	-2.384	 H	1	SOG0	0.000	
46	 HO3	-2.228	-0.281	-5.637	 H	1	SOG0	0.000	
47	 HO4	1.083	-0.168	-6.315	 H	1	SOG0	0.000	
48	 HO6	4.331	0.339	-1.820	 H	1	SOG0	0.000	
@<TRIPOS>BOND
1 1 2 1
2 1 15 1
3 1 19 1
4 1 21 1
5 2 3 1
6 2 16 1
7 2 22 1
8 3 4 1
9 3 17 1
10 3 23 1
11 4 5 1
12 4 18 1
13 4 24 1
14 5 6 1
15 5 19 1
16 5 25 1
17 6 20 1
18 6 26 1
19 6 27 1
20 7 8 1
21 7 15 1
22 7 28 1
23 7 29 1
24 8 9 1
25 8 30 1
26 8 31 1
27 9 10 1
28 9 32 1
29 9 33 1
30 10 11 1
31 10 34 1
32 10 35 1
33 11 12 1
34 11 36 1
35 11 37 1
36 12 13 1
37 12 38 1
38 12 39 1
39 13 14 1
40 13 40 1
41 13 41 1
42 14 42 1
43 14 43 1
44 14 44 1
45 16 45 1
46 17 46 1
47 18 47 1
48 20 48 1
@<TRIPOS>SUBSTRUCTURE
1	SOG0	1	GROUP	1 ****	SOG
