# created with PyMOL 2.3.5
@<TRIPOS>MOLECULE
DN5
51 54 1 0 0
SMALL
USER_CHARGES


@<TRIPOS>ATOM
      1 C10        -2.3180    0.4000    0.6440 C.2       1 DN51        0.0000
      2 C11        -2.2590   -0.6500    1.5420 C.2       1 DN51        0.0000
      3 C13        -4.1660   -1.6530    0.4950 C.2       1 DN51        0.0000
      4 C15        -3.2990    0.4240   -0.3280 C.2       1 DN51        0.0000
      5 C18        -2.0460    2.8430    0.9690 C.3       1 DN51        0.0000
      6 C19        -2.7370    2.8040    2.3330 C.3       1 DN51        0.0000
      7 C20        -1.0390    3.9950    0.9400 C.3       1 DN51        0.0000
      8 C22         4.6930   -1.2190   -0.4310 C.2       1 DN51        0.0000
      9 C23         5.4250   -0.1880    0.1530 C.2       1 DN51        0.0000
     10 C25         6.6080   -0.4710    0.8140 C.2       1 DN51        0.0000
     11 C26         7.0610   -1.7750    0.8930 C.2       1 DN51        0.0000
     12 C27         6.3360   -2.7980    0.3130 C.2       1 DN51        0.0000
     13 C28         5.1530   -2.5230   -0.3480 C.2       1 DN51        0.0000
     14 C1          1.4680    1.1380   -1.8820 C.3       1 DN51        0.0000
     15 C2          2.8700    1.5920   -1.4610 C.3       1 DN51        0.0000
     16 C3          3.4310    0.6170   -0.4310 C.3       1 DN51        0.0000
     17 C4          2.5400    0.5610    0.8050 C.3       1 DN51        0.0000
     18 C5          1.1360    0.0980    0.4000 C.3       1 DN51        0.0000
     19 N6          0.6450    0.9690   -0.6770 N.pl3     1 DN51        0.0000
     20 C7         -0.5400    1.6010   -0.5610 C.2       1 DN51        0.0000
     21 O8         -0.9830    2.2350   -1.4950 O.2       1 DN51        0.0000
     22 C9         -1.3140    1.5200    0.7300 C.3       1 DN51        0.0000
     23 C12        -3.1820   -1.6760    1.4680 C.2       1 DN51        0.0000
     24 C14        -4.2250   -0.6010   -0.4040 C.2       1 DN51        0.0000
     25 CL6        -5.4580   -0.5710   -1.6250 Cl        1 DN51        0.0000
     26 CL7        -5.3250   -2.9420    0.4010 Cl        1 DN51        0.0000
     27 O21         3.5750   -0.6890   -1.0100 O.3       1 DN51        0.0000
     28 O24         4.7690    0.9910   -0.0650 O.3       1 DN51        0.0000
     29 H1         -1.4910   -0.6690    2.3010 H         1 DN51        0.0000
     30 H2         -3.3450    1.2450   -1.0290 H         1 DN51        0.0000
     31 H3         -2.7910    2.9920    0.1880 H         1 DN51        0.0000
     32 H4         -3.2580    3.7460    2.5040 H         1 DN51        0.0000
     33 H5         -3.4540    1.9830    2.3540 H         1 DN51        0.0000
     34 H6         -1.9910    2.6550    3.1140 H         1 DN51        0.0000
     35 H7         -0.3460    3.8930    1.7750 H         1 DN51        0.0000
     36 H8         -0.4850    3.9700    0.0020 H         1 DN51        0.0000
     37 H9         -1.5700    4.9430    1.0230 H         1 DN51        0.0000
     38 H10         7.1780    0.3270    1.2670 H         1 DN51        0.0000
     39 H11         7.9840   -1.9940    1.4100 H         1 DN51        0.0000
     40 H12         6.6930   -3.8160    0.3770 H         1 DN51        0.0000
     41 H13         4.5880   -3.3250   -0.8000 H         1 DN51        0.0000
     42 H14         1.0180    1.8910   -2.5290 H         1 DN51        0.0000
     43 H15         1.5330    0.1890   -2.4150 H         1 DN51        0.0000
     44 H16         3.5220    1.6140   -2.3340 H         1 DN51        0.0000
     45 H17         2.8130    2.5890   -1.0240 H         1 DN51        0.0000
     46 H18         2.9610   -0.1410    1.5250 H         1 DN51        0.0000
     47 H19         2.4800    1.5520    1.2550 H         1 DN51        0.0000
     48 H20         1.1780   -0.9320    0.0470 H         1 DN51        0.0000
     49 H21         0.4680    0.1620    1.2590 H         1 DN51        0.0000
     50 H22        -0.6270    1.3310    1.5540 H         1 DN51        0.0000
     51 H23        -3.1350   -2.4960    2.1690 H         1 DN51        0.0000
@<TRIPOS>BOND
     1    8   27 1
     2   16   27 1
     3    8   13 2
     4   12   13 1
     5   15   16 1
     6   14   15 1
     7    5    7 1
     8    8    9 1
     9   11   12 2
    10   16   17 1
    11   16   28 1
    12   14   19 1
    13    5    6 1
    14    5   22 1
    15   20   22 1
    16    1   22 1
    17   17   18 1
    18   19   20 1
    19   18   19 1
    20    9   28 1
    21    9   10 2
    22   20   21 2
    23    1    4 2
    24    4   24 1
    25   10   11 1
    26   24   25 1
    27    1    2 1
    28    3   24 2
    29    2   23 2
    30    3   23 1
    31    3   26 1
    32    2   29 1
    33    4   30 1
    34    5   31 1
    35    6   32 1
    36    6   33 1
    37    6   34 1
    38    7   35 1
    39    7   36 1
    40    7   37 1
    41   10   38 1
    42   11   39 1
    43   12   40 1
    44   13   41 1
    45   14   42 1
    46   14   43 1
    47   15   44 1
    48   15   45 1
    49   17   46 1
    50   17   47 1
    51   18   48 1
    52   18   49 1
    53   22   50 1
    54   23   51 1
@<TRIPOS>SUBSTRUCTURE
     1 DN51        1 RESIDUE           4 A     DN5     0 ROOT
