@<TRIPOS>MOLECULE
QW7
33 35 1 0 0
SMALL
NO_CHARGES


@<TRIPOS>ATOM
      1 C10       151.8540  143.9850  123.8190 C.3       1 QW7536      0.0000
      2 C14       150.3740  145.5580  127.8260 C.ar      1 QW7536      0.0000
      3 C15       149.9080  146.3370  128.9230 C.ar      1 QW7536      0.0000
      4 C16       149.5780  147.6770  128.7320 C.ar      1 QW7536      0.0000
      5 C17       149.7060  148.2550  127.4630 C.ar      1 QW7536      0.0000
      6 C18       149.3760  149.5930  127.2720 C.ar      1 QW7536      0.0000
      7 C19       148.0900  149.9370  126.8900 C.ar      1 QW7536      0.0000
      8 C23       150.3310  150.5850  127.4630 C.ar      1 QW7536      0.0000
      9 C24       151.7510  150.2110  127.8850 C.3       1 QW7536      0.0000
     10 C25       152.7250  151.2350  127.3040 C.3       1 QW7536      0.0000
     11 C26       154.1100  151.0260  127.7960 C.3       1 QW7536      0.0000
     12 C27       154.1720  150.9750  129.2770 C.3       1 QW7536      0.0000
     13 C28       153.1960  149.9540  129.8570 C.3       1 QW7536      0.0000
     14 C01       155.8110  148.7910  125.8950 C.3       1 QW7536      0.0000
     15 C03       154.3090  147.5150  124.6250 C.ar      1 QW7536      0.0000
     16 C04       153.9950  148.5300  123.7350 C.ar      1 QW7536      0.0000
     17 C05       152.7940  148.4970  123.0420 C.ar      1 QW7536      0.0000
     18 C06       151.9070  147.4500  123.2390 C.ar      1 QW7536      0.0000
     19 C08       152.2210  146.4350  124.1290 C.ar      1 QW7536      0.0000
     20 C09       151.2410  145.2800  124.3460 C.3       1 QW7536      0.0000
     21 C12       151.1040  144.0330  126.4790 C.ar      1 QW7536      0.0000
     22 C20       147.7550  151.2680  126.6980 C.ar      1 QW7536      0.0000
     23 C21       148.7080  152.2570  126.8880 C.ar      1 QW7536      0.0000
     24 C22       149.9950  151.9140  127.2710 C.ar      1 QW7536      0.0000
     25 C30       150.1620  147.4910  126.3900 C.ar      1 QW7536      0.0000
     26 C31       150.4980  146.1230  126.5870 C.ar      1 QW7536      0.0000
     27 C32       153.4240  146.4670  124.8230 C.ar      1 QW7536      0.0000
     28 N11       150.9590  145.1400  125.7630 N.ar      1 QW7536      0.0000
     29 N13       150.7560  144.2540  127.7400 N.ar      1 QW7536      0.0000
     30 N29       151.8140  150.1600  129.3630 N.4       1 QW7536      0.0000
     31 O02       155.5220  147.5490  125.3240 O.3       1 QW7536      0.0000
     32 CL07      150.3620  147.4090  122.3470 C         1 QW7536      0.0000
     33 CL33      153.8300  145.1610  125.9700 C         1 QW7536      0.0000
@<TRIPOS>BOND
     1    1   20 1
     2    2    3 ar
     3    2   26 ar
     4    2   29 ar
     5    3    4 ar
     6    4    5 ar
     7    5    6 1
     8    5   25 ar
     9    6    7 ar
    10    6    8 ar
    11    7   22 ar
    12    8    9 1
    13    8   24 ar
    14    9   10 1
    15    9   30 1
    16   10   11 1
    17   11   12 1
    18   12   13 1
    19   13   30 1
    20   14   31 1
    21   15   16 ar
    22   15   27 ar
    23   15   31 1
    24   16   17 ar
    25   17   18 ar
    26   18   19 ar
    27   19   20 1
    28   19   27 ar
    29   20   28 1
    30   21   28 ar
    31   21   29 ar
    32   22   23 ar
    33   23   24 ar
    34   25   26 ar
    35   26   28 ar
@<TRIPOS>SUBSTRUCTURE
     1 QW7536      1 RESIDUE           4 R     QW7     0 ROOT
