@<TRIPOS>MOLECULE
UK4
41 46 1 0 0
SMALL
NO_CHARGES


@<TRIPOS>ATOM
      1 C29       126.7730  119.5200  154.0410 C.3       1 UK4536      0.0000
      2 C28       126.5680  118.3070  154.8050 C.3       1 UK4536      0.0000
      3 C27       127.9620  118.2550  155.0890 C.3       1 UK4536      0.0000
      4 C26       128.6100  116.9870  154.6630 C.3       1 UK4536      0.0000
      5 C20       124.5280  114.0380  152.2330 C.2       1 UK4536      0.0000
      6 C13       130.7290  118.1810  152.7640 C.3       1 UK4536      0.0000
      7 C11       131.7720  115.9700  152.9820 C.3       1 UK4536      0.0000
      8 C10       133.0730  115.2450  153.3270 C.3       1 UK4536      0.0000
      9 C14       129.5160  117.3280  152.3780 C.ar      1 UK4536      0.0000
     10 C16       128.0720  116.2570  151.1780 C.ar      1 UK4536      0.0000
     11 C17       127.2990  115.6430  150.1820 C.ar      1 UK4536      0.0000
     12 C18       126.1600  114.9330  150.5280 C.ar      1 UK4536      0.0000
     13 C19       125.7820  114.8280  151.8610 C.ar      1 UK4536      0.0000
     14 C02       135.2900  119.1740  157.9470 C.ar      1 UK4536      0.0000
     15 C03       136.0820  118.0840  158.2700 C.ar      1 UK4536      0.0000
     16 C04       137.3080  117.7690  157.4030 C.3       1 UK4536      0.0000
     17 C06       136.5780  115.6000  156.7810 C.ar      1 UK4536      0.0000
     18 C08       134.8910  115.3990  155.2110 C.ar      1 UK4536      0.0000
     19 C09       134.0780  116.0500  154.0960 C.3       1 UK4536      0.0000
     20 C23       126.5470  115.4350  152.8480 C.ar      1 UK4536      0.0000
     21 C24       127.7010  116.1560  152.5000 C.ar      1 UK4536      0.0000
     22 C31       132.2290  117.7420  154.5640 C.3       1 UK4536      0.0000
     23 C32       133.5330  117.0930  155.0160 C.3       1 UK4536      0.0000
     24 C33       134.6350  114.0920  155.5850 C.ar      1 UK4536      0.0000
     25 C34       135.3960  113.5380  156.6020 C.ar      1 UK4536      0.0000
     26 C35       136.3820  114.2990  157.2100 C.ar      1 UK4536      0.0000
     27 C36       135.7610  117.3020  159.3710 C.ar      1 UK4536      0.0000
     28 C37       134.6480  117.6060  160.1380 C.ar      1 UK4536      0.0000
     29 C38       133.8600  118.6950  159.8110 C.ar      1 UK4536      0.0000
     30 C39       132.6330  119.0370  160.6560 C.1       1 UK4536      0.0000
     31 C41       134.1800  119.4790  158.7150 C.ar      1 UK4536      0.0000
     32 F01       135.6020  119.9490  156.8700 F         1 UK4536      0.0000
     33 N07       135.8390  116.0930  155.8100 N.ar      1 UK4536      0.0000
     34 N12       131.9200  117.4340  153.1440 N.4       1 UK4536      0.0000
     35 N15       129.1940  116.9900  151.1420 N.ar      1 UK4536      0.0000
     36 N25       128.6120  116.8370  153.2140 N.ar      1 UK4536      0.0000
     37 N40       131.7240  119.2890  161.2830 N.1       1 UK4536      0.0000
     38 O05       137.5710  116.3910  157.3830 O.3       1 UK4536      0.0000
     39 O21       123.7060  113.7110  151.3390 O.co2     1 UK4536      0.0000
     40 O22       124.3190  113.7120  153.4300 O.co2     1 UK4536      0.0000
     41 O30       128.1830  119.3670  154.1830 O.3       1 UK4536      0.0000
@<TRIPOS>BOND
     1    1    2 1
     2    1   41 1
     3    2    3 1
     4    3    4 1
     5    3   41 1
     6    4   36 1
     7    5   13 1
     8    5   39 2
     9    5   40 2
    10    6    9 1
    11    6   34 1
    12    7    8 1
    13    7   34 1
    14    8   19 1
    15    9   35 ar
    16    9   36 ar
    17   10   11 ar
    18   10   21 ar
    19   10   35 ar
    20   11   12 ar
    21   12   13 ar
    22   13   20 ar
    23   14   15 ar
    24   14   31 ar
    25   14   32 1
    26   15   16 1
    27   15   27 ar
    28   16   38 1
    29   17   26 ar
    30   17   33 ar
    31   17   38 1
    32   18   19 1
    33   18   24 ar
    34   18   33 ar
    35   19   23 1
    36   20   21 ar
    37   21   36 ar
    38   22   23 1
    39   22   34 1
    40   24   25 ar
    41   25   26 ar
    42   27   28 ar
    43   28   29 ar
    44   29   30 1
    45   29   31 ar
    46   30   37 3
@<TRIPOS>SUBSTRUCTURE
     1 UK4536      1 RESIDUE           4 R     UK4     0 ROOT
