@<TRIPOS>MOLECULE
UK4
41 46 1 0 0
SMALL
NO_CHARGES


@<TRIPOS>ATOM
      1 C29       142.6670  121.4840  104.6900 C.3       1 UK4536      0.0000
      2 C28       143.1270  120.1110  104.6890 C.3       1 UK4536      0.0000
      3 C27       143.4050  120.2120  103.2990 C.3       1 UK4536      0.0000
      4 C26       142.7210  119.1840  102.4760 C.3       1 UK4536      0.0000
      5 C20       141.2070  115.2440  106.1650 C.2       1 UK4536      0.0000
      6 C13       140.4590  120.8870  101.3330 C.3       1 UK4536      0.0000
      7 C11       140.0610  119.0480   99.7680 C.3       1 UK4536      0.0000
      8 C10       139.8780  118.6910   98.2950 C.3       1 UK4536      0.0000
      9 C14       140.3170  119.7440  102.3420 C.ar      1 UK4536      0.0000
     10 C16       139.4480  118.3310  103.7240 C.ar      1 UK4536      0.0000
     11 C17       138.6350  117.5370  104.5440 C.ar      1 UK4536      0.0000
     12 C18       139.2090  116.5480  105.3260 C.ar      1 UK4536      0.0000
     13 C19       140.5840  116.3400  105.2990 C.ar      1 UK4536      0.0000
     14 C02       143.5890  123.3230   95.7490 C.ar      1 UK4536      0.0000
     15 C03       143.6000  122.4790   94.6530 C.ar      1 UK4536      0.0000
     16 C04       142.3500  122.3700   93.7730 C.3       1 UK4536      0.0000
     17 C06       141.9960  120.0560   94.0570 C.ar      1 UK4536      0.0000
     18 C08       141.0350  119.3660   96.0390 C.ar      1 UK4536      0.0000
     19 C09       140.2710  119.7450   97.3030 C.3       1 UK4536      0.0000
     20 C23       141.3880  117.1260  104.4860 C.ar      1 UK4536      0.0000
     21 C24       140.8110  118.1290  103.6920 C.ar      1 UK4536      0.0000
     22 C31       141.5090  120.8940   99.2100 C.3       1 UK4536      0.0000
     23 C32       141.3260  120.7190   97.7100 C.3       1 UK4536      0.0000
     24 C33       141.3980  118.0520   95.8110 C.ar      1 UK4536      0.0000
     25 C34       142.0900  117.7510   94.6510 C.ar      1 UK4536      0.0000
     26 C35       142.3920  118.7650   93.7590 C.ar      1 UK4536      0.0000
     27 C36       144.7390  121.7490   94.3620 C.ar      1 UK4536      0.0000
     28 C37       145.8580  121.8640   95.1710 C.ar      1 UK4536      0.0000
     29 C38       145.8390  122.7080   96.2660 C.ar      1 UK4536      0.0000
     30 C39       147.0690  122.8380   97.1590 C.1       1 UK4536      0.0000
     31 C41       144.7030  123.4390   96.5560 C.ar      1 UK4536      0.0000
     32 F01       142.4750  124.0460   96.0380 F         1 UK4536      0.0000
     33 N07       141.3360  120.3040   95.1680 N.ar      1 UK4536      0.0000
     34 N12       140.2840  120.5000   99.9440 N.4       1 UK4536      0.0000
     35 N15       139.1820  119.3350  102.8790 N.ar      1 UK4536      0.0000
     36 N25       141.3170  119.0300  102.8320 N.ar      1 UK4536      0.0000
     37 N40       147.9800  122.9350   97.8230 N.1       1 UK4536      0.0000
     38 O05       142.2910  121.1060   93.1720 O.3       1 UK4536      0.0000
     39 O21       140.5520  114.7430  107.1140 O.co2     1 UK4536      0.0000
     40 O22       142.3770  114.8430  105.9340 O.co2     1 UK4536      0.0000
     41 O30       142.7630  121.5120  103.2690 O.3       1 UK4536      0.0000
@<TRIPOS>BOND
     1    1    2 1
     2    1   41 1
     3    2    3 1
     4    3    4 1
     5    3   41 1
     6    4   36 1
     7    5   13 1
     8    5   39 2
     9    5   40 2
    10    6    9 1
    11    6   34 1
    12    7    8 1
    13    7   34 1
    14    8   19 1
    15    9   35 ar
    16    9   36 ar
    17   10   11 ar
    18   10   21 ar
    19   10   35 ar
    20   11   12 ar
    21   12   13 ar
    22   13   20 ar
    23   14   15 ar
    24   14   31 ar
    25   14   32 1
    26   15   16 1
    27   15   27 ar
    28   16   38 1
    29   17   26 ar
    30   17   33 ar
    31   17   38 1
    32   18   19 1
    33   18   24 ar
    34   18   33 ar
    35   19   23 1
    36   20   21 ar
    37   21   36 ar
    38   22   23 1
    39   22   34 1
    40   24   25 ar
    41   25   26 ar
    42   27   28 ar
    43   28   29 ar
    44   29   30 1
    45   29   31 ar
    46   30   37 3
@<TRIPOS>SUBSTRUCTURE
     1 UK4536      1 RESIDUE           4 R     UK4     0 ROOT
