# created with PyMOL 2.3.5
@<TRIPOS>MOLECULE
BF0
65 70 1                 
SMALL
USER_CHARGES
@<TRIPOS>ATOM
1	 CBF	-7.792	1.891	0.368	C.3	1	BF00	0.000	
2	 CBG	-7.283	0.843	1.359	C.3	1	BF00	0.000	
3	 CBE	-6.294	1.778	0.659	C.3	1	BF00	0.000	
4	 CBD	-5.405	1.178	-0.432	C.3	1	BF00	0.000	
5	 NAJ	-3.998	1.262	-0.019	N.3	1	BF00	0.000	
6	 CAK	-3.741	0.412	1.148	C.3	1	BF00	0.000	
7	 CAL	-2.296	0.596	1.630	C.3	1	BF00	0.000	
8	 CAM	-1.362	0.265	0.465	C.3	1	BF00	0.000	
9	 CBC	-1.656	-1.134	-0.020	C.2	1	BF00	0.000	
10	 CAN	0.082	0.117	0.912	C.3	1	BF00	0.000	
11	 OAA	0.114	-1.279	1.353	O.3	1	BF00	0.000	
12	 CAB	-0.741	-1.986	0.583	C.2	1	BF00	0.000	
13	 CAC	-0.837	-3.354	0.306	C.2	1	BF00	0.000	
14	 OAD	0.001	-4.256	0.885	O.3	1	BF00	0.000	
15	 CAE	-1.829	-3.751	-0.587	C.2	1	BF00	0.000	
16	 CAF	-2.682	-2.861	-1.219	C.2	1	BF00	0.000	
17	 CAG	-2.588	-1.504	-0.962	C.2	1	BF00	0.000	
18	 CAH	-3.375	-0.445	-1.665	C.3	1	BF00	0.000	
19	 CAI	-3.100	0.954	-1.141	C.3	1	BF00	0.000	
20	 CAR	-1.658	1.193	-0.699	C.3	1	BF00	0.000	
21	 OAS	-1.513	2.549	-0.270	O.3	1	BF00	0.000	
22	 CAQ	-0.680	0.931	-1.840	C.3	1	BF00	0.000	
23	 CAP	0.732	1.196	-1.318	C.3	1	BF00	0.000	
24	 CAO	1.098	0.240	-0.206	C.3	1	BF00	0.000	
25	 NAT	2.369	0.679	0.375	N.pl3	1	BF00	0.000	
26	 CAU	3.534	0.294	-0.183	C.2	1	BF00	0.000	
27	 OAV	3.530	-0.415	-1.167	O.2	1	BF00	0.000	
28	 CAW	4.842	0.745	0.415	C.3	1	BF00	0.000	
29	 CAX	6.001	0.174	-0.404	C.3	1	BF00	0.000	
30	 CAY	7.309	0.625	0.194	C.2	1	BF00	0.000	
31	 OAZ	7.313	1.331	1.175	O.co2	1	BF00	0.000	
32	 OBA	8.469	0.242	-0.362	O.3	1	BF00	0.000	
33	 CBB	9.689	0.714	0.267	C.3	1	BF00	0.000	
34	  H1	-8.144	1.538	-0.602	 H	1	BF00	0.000	
35	  H2	-8.320	2.754	0.774	 H	1	BF00	0.000	
36	  H3	-7.476	1.016	2.418	 H	1	BF00	0.000	
37	  H4	-7.300	-0.199	1.042	 H	1	BF00	0.000	
38	  H5	-5.837	2.566	1.257	 H	1	BF00	0.000	
39	  H6	-5.676	0.133	-0.587	 H	1	BF00	0.000	
40	  H7	-5.545	1.731	-1.360	 H	1	BF00	0.000	
41	  H9	-4.427	0.683	1.951	 H	1	BF00	0.000	
42	 H10	-3.901	-0.632	0.877	 H	1	BF00	0.000	
43	 H11	-2.142	1.628	1.944	 H	1	BF00	0.000	
44	 H12	-2.098	-0.076	2.465	 H	1	BF00	0.000	
45	 H13	0.309	0.796	1.734	 H	1	BF00	0.000	
46	 H14	-0.324	-4.613	1.723	 H	1	BF00	0.000	
47	 H15	-1.939	-4.804	-0.799	 H	1	BF00	0.000	
48	 H16	-3.424	-3.226	-1.913	 H	1	BF00	0.000	
49	 H17	-3.131	-0.475	-2.727	 H	1	BF00	0.000	
50	 H18	-4.436	-0.660	-1.544	 H	1	BF00	0.000	
51	 H19	-3.323	1.652	-1.948	 H	1	BF00	0.000	
52	 H20	-1.715	3.201	-0.955	 H	1	BF00	0.000	
53	 H21	-0.765	-0.106	-2.167	 H	1	BF00	0.000	
54	 H22	-0.897	1.600	-2.672	 H	1	BF00	0.000	
55	 H23	1.442	1.079	-2.136	 H	1	BF00	0.000	
56	 H24	0.787	2.217	-0.942	 H	1	BF00	0.000	
57	 H25	1.250	-0.748	-0.641	 H	1	BF00	0.000	
58	 H26	2.373	1.246	1.163	 H	1	BF00	0.000	
59	 H27	4.891	1.834	0.403	 H	1	BF00	0.000	
60	 H28	4.913	0.390	1.443	 H	1	BF00	0.000	
61	 H29	5.952	-0.915	-0.391	 H	1	BF00	0.000	
62	 H30	5.930	0.529	-1.432	 H	1	BF00	0.000	
63	 H31	9.705	1.804	0.257	 H	1	BF00	0.000	
64	 H32	9.727	0.360	1.297	 H	1	BF00	0.000	
65	 H33	10.551	0.333	-0.280	 H	1	BF00	0.000	
@<TRIPOS>BOND
1 1 2 1
2 1 3 1
3 2 3 1
4 3 4 1
5 20 21 1
6 32 33 1
7 4 5 1
8 5 19 1
9 19 20 1
10 18 19 1
11 5 6 1
12 20 22 1
13 22 23 1
14 8 20 1
15 23 24 1
16 30 31 2
17 17 18 1
18 30 32 1
19 29 30 1
20 6 7 1
21 7 8 1
22 8 10 1
23 8 9 1
24 10 24 1
25 24 25 1
26 9 17 2
27 16 17 1
28 10 11 1
29 26 27 2
30 9 12 1
31 25 26 1
32 26 28 1
33 28 29 1
34 15 16 2
35 11 12 1
36 12 13 2
37 13 15 1
38 13 14 1
39 1 34 1
40 1 35 1
41 2 36 1
42 2 37 1
43 3 38 1
44 4 39 1
45 4 40 1
46 6 41 1
47 6 42 1
48 7 43 1
49 7 44 1
50 10 45 1
51 14 46 1
52 15 47 1
53 16 48 1
54 18 49 1
55 18 50 1
56 19 51 1
57 21 52 1
58 22 53 1
59 22 54 1
60 23 55 1
61 23 56 1
62 24 57 1
63 25 58 1
64 28 59 1
65 28 60 1
66 29 61 1
67 29 62 1
68 33 63 1
69 33 64 1
70 33 65 1
@<TRIPOS>SUBSTRUCTURE
1	BF00	1	GROUP	1 ****	BF0
