# created with PyMOL 2.3.5
@<TRIPOS>MOLECULE
DNK
51 54 1 0 0
SMALL
USER_CHARGES


@<TRIPOS>ATOM
      1 C10         1.3620    0.5850    0.8640 C.3       1 DNK1        0.0000
      2 C11         0.0860   -0.1110    0.3760 C.3       1 DNK1        0.0000
      3 C13        -1.8070    1.0980   -0.5950 C.2       1 DNK1        0.0000
      4 C15        -3.8090    1.6040    0.7790 C.3       1 DNK1        0.0000
      5 C16        -4.7480    1.0540    1.8540 C.3       1 DNK1        0.0000
      6 C17        -3.2370    2.9460    1.2380 C.3       1 DNK1        0.0000
      7 C18        -3.2340   -0.7400    0.2080 C.2       1 DNK1        0.0000
      8 C19        -4.0350   -0.8940   -0.9080 C.2       1 DNK1        0.0000
      9 C20        -4.5510   -2.1380   -1.2210 C.2       1 DNK1        0.0000
     10 C21        -4.2660   -3.2270   -0.4180 C.2       1 DNK1        0.0000
     11 C22        -3.4640   -3.0720    0.6970 C.2       1 DNK1        0.0000
     12 C23        -2.9490   -1.8290    1.0110 C.2       1 DNK1        0.0000
     13 C25         0.2990    1.0870   -1.8420 C.3       1 DNK1        0.0000
     14 C26         1.5740    1.7730   -1.3380 C.3       1 DNK1        0.0000
     15 C1          4.5430   -1.9010   -0.2980 C.2       1 DNK1        0.0000
     16 C2          3.8500   -0.7020   -0.3460 C.2       1 DNK1        0.0000
     17 C3          4.3590    0.4190    0.3060 C.2       1 DNK1        0.0000
     18 C4          5.5540    0.3300    0.9990 C.2       1 DNK1        0.0000
     19 C5          6.2400   -0.8700    1.0430 C.2       1 DNK1        0.0000
     20 C6          5.7360   -1.9820    0.3960 C.2       1 DNK1        0.0000
     21 O7          3.5000    1.4640    0.1120 O.3       1 DNK1        0.0000
     22 C8          2.2710    0.8680   -0.3280 C.3       1 DNK1        0.0000
     23 O9          2.6740   -0.3600   -0.9500 O.3       1 DNK1        0.0000
     24 N12        -0.5210    0.7050   -0.6840 N.pl3     1 DNK1        0.0000
     25 C14        -2.6650    0.6150    0.5460 C.3       1 DNK1        0.0000
     26 O24        -2.2740    1.8400   -1.4330 O.2       1 DNK1        0.0000
     27 H1          1.0990    1.5240    1.3520 H         1 DNK1        0.0000
     28 H2          1.8810   -0.0600    1.5720 H         1 DNK1        0.0000
     29 H3          0.3360   -1.0960   -0.0190 H         1 DNK1        0.0000
     30 H4         -0.6130   -0.2170    1.2060 H         1 DNK1        0.0000
     31 H5         -4.3630    1.7440   -0.1500 H         1 DNK1        0.0000
     32 H6         -5.5630    1.7590    2.0200 H         1 DNK1        0.0000
     33 H7         -5.1560    0.0980    1.5270 H         1 DNK1        0.0000
     34 H8         -4.1940    0.9140    2.7830 H         1 DNK1        0.0000
     35 H9         -2.6090    2.7920    2.1160 H         1 DNK1        0.0000
     36 H10        -2.6400    3.3800    0.4370 H         1 DNK1        0.0000
     37 H11        -4.0540    3.6220    1.4900 H         1 DNK1        0.0000
     38 H12        -4.2580   -0.0440   -1.5350 H         1 DNK1        0.0000
     39 H13        -5.1780   -2.2590   -2.0920 H         1 DNK1        0.0000
     40 H14        -4.6700   -4.1980   -0.6620 H         1 DNK1        0.0000
     41 H15        -3.2420   -3.9230    1.3240 H         1 DNK1        0.0000
     42 H16        -2.3230   -1.7080    1.8830 H         1 DNK1        0.0000
     43 H17        -0.2610    1.7750   -2.4750 H         1 DNK1        0.0000
     44 H18         0.5620    0.1960   -2.4130 H         1 DNK1        0.0000
     45 H19         2.2410    1.9610   -2.1790 H         1 DNK1        0.0000
     46 H20         1.3140    2.7180   -0.8610 H         1 DNK1        0.0000
     47 H21         4.1510   -2.7710   -0.8030 H         1 DNK1        0.0000
     48 H22         5.9510    1.1970    1.5050 H         1 DNK1        0.0000
     49 H23         7.1730   -0.9380    1.5840 H         1 DNK1        0.0000
     50 H24         6.2750   -2.9180    0.4340 H         1 DNK1        0.0000
     51 H25        -2.0600    0.5400    1.4490 H         1 DNK1        0.0000
@<TRIPOS>BOND
     1   16   23 1
     2   22   23 1
     3   14   22 1
     4   13   14 1
     5   15   16 2
     6   15   20 1
     7   16   17 1
     8    4    6 1
     9    1   22 1
    10   21   22 1
    11    1    2 1
    12   19   20 2
    13   13   24 1
    14    4   25 1
    15    3   25 1
    16    7   25 1
    17    3   24 1
    18    2   24 1
    19    4    5 1
    20    3   26 2
    21    7    8 2
    22    8    9 1
    23   17   21 1
    24   17   18 2
    25    7   12 1
    26   18   19 1
    27    9   10 2
    28   11   12 2
    29   10   11 1
    30    1   27 1
    31    1   28 1
    32    2   29 1
    33    2   30 1
    34    4   31 1
    35    5   32 1
    36    5   33 1
    37    5   34 1
    38    6   35 1
    39    6   36 1
    40    6   37 1
    41    8   38 1
    42    9   39 1
    43   10   40 1
    44   11   41 1
    45   12   42 1
    46   13   43 1
    47   13   44 1
    48   14   45 1
    49   14   46 1
    50   15   47 1
    51   18   48 1
    52   19   49 1
    53   20   50 1
    54   25   51 1
@<TRIPOS>SUBSTRUCTURE
     1 DNK1        1 RESIDUE           4 A     DNK     0 ROOT
