# created with PyMOL 2.3.5
@<TRIPOS>MOLECULE
9P2
79 85 1 0 0
SMALL
USER_CHARGES


@<TRIPOS>ATOM
      1 C15         1.8190    4.3130   -1.3790 C.2       1 9P21        0.0000
      2 C16         1.5220    3.8470   -2.6500 C.2       1 9P21        0.0000
      3 C17         0.5810    2.8330   -2.8130 C.2       1 9P21        0.0000
      4 C18        -0.0520    2.2960   -1.7050 C.2       1 9P21        0.0000
      5 C20         1.6410    3.1200   -4.7580 C.3       1 9P21        0.0000
      6 C01        -2.6740   -1.7880   -0.1620 C.2       1 9P21        0.0000
      7 N02        -3.5100   -0.8590    0.2420 N.2       1 9P21        0.0000
      8 C03        -2.8740   -0.0350    1.0950 C.2       1 9P21        0.0000
      9 C04        -1.5920   -0.4700    1.2260 C.2       1 9P21        0.0000
     10 N05        -1.4650   -1.5760    0.4340 N.pl3     1 9P21        0.0000
     11 C06        -0.2550   -2.3840    0.2570 C.3       1 9P21        0.0000
     12 C07         0.6120   -1.7700   -0.8430 C.3       1 9P21        0.0000
     13 C08         1.8750   -2.6140   -1.0280 C.3       1 9P21        0.0000
     14 C09         2.7420   -2.0000   -2.1280 C.3       1 9P21        0.0000
     15 C10        -0.5170    0.1500    2.0820 C.3       1 9P21        0.0000
     16 N11         0.3230    1.0260    1.2540 N.3       1 9P21        0.0000
     17 C12        -0.4420    2.1800    0.7640 C.3       1 9P21        0.0000
     18 C13         0.2490    2.7660   -0.4400 C.2       1 9P21        0.0000
     19 C14         1.1830    3.7720   -0.2780 C.2       1 9P21        0.0000
     20 O19         0.4680    2.5540   -4.1450 O.3       1 9P21        0.0000
     21 O21         1.9980    4.2030   -3.8790 O.3       1 9P21        0.0000
     22 C22         1.5170    1.4600    1.9920 C.3       1 9P21        0.0000
     23 C23         2.5030    0.3230    2.0660 C.2       1 9P21        0.0000
     24 C24         3.4700    0.1840    1.0890 C.2       1 9P21        0.0000
     25 C25         4.3780   -0.8610    1.1560 C.2       1 9P21        0.0000
     26 O26         5.4100   -1.2170    0.3360 O.3       1 9P21        0.0000
     27 C27         5.7170   -2.5820    0.6760 C.3       1 9P21        0.0000
     28 O28         5.3040   -2.6940    2.0510 O.3       1 9P21        0.0000
     29 C29         4.3130   -1.7690    2.2100 C.2       1 9P21        0.0000
     30 C30         3.3400   -1.6230    3.1860 C.2       1 9P21        0.0000
     31 C31         2.4410   -0.5750    3.1160 C.2       1 9P21        0.0000
     32 C32        -3.4690    1.1430    1.7730 C.2       1 9P21        0.0000
     33 C33        -4.2930    2.0160    1.0660 C.2       1 9P21        0.0000
     34 C34        -4.8430    3.1100    1.7020 C.2       1 9P21        0.0000
     35 C35        -4.5770    3.3420    3.0390 C.2       1 9P21        0.0000
     36 C36        -3.7590    2.4790    3.7470 C.2       1 9P21        0.0000
     37 C37        -3.2090    1.3780    3.1220 C.2       1 9P21        0.0000
     38 C38        -2.9930   -2.8860   -1.1000 C.2       1 9P21        0.0000
     39 C39        -4.3190   -3.2680   -1.3080 C.2       1 9P21        0.0000
     40 C40        -4.6100   -4.2920   -2.1850 C.2       1 9P21        0.0000
     41 C41        -3.5900   -4.9410   -2.8590 C.2       1 9P21        0.0000
     42 C42        -2.2730   -4.5670   -2.6570 C.2       1 9P21        0.0000
     43 C43        -1.9690   -3.5400   -1.7870 C.2       1 9P21        0.0000
     44 H1          2.5510    5.0960   -1.2490 H         1 9P21        0.0000
     45 H2         -0.7820    1.5100   -1.8290 H         1 9P21        0.0000
     46 H3          2.4440    2.3830   -4.8020 H         1 9P21        0.0000
     47 H4          1.4100    3.4960   -5.7540 H         1 9P21        0.0000
     48 H5          0.3060   -2.4070    1.1920 H         1 9P21        0.0000
     49 H6         -0.5350   -3.3990   -0.0240 H         1 9P21        0.0000
     50 H7          0.0510   -1.7470   -1.7780 H         1 9P21        0.0000
     51 H8          0.8910   -0.7540   -0.5620 H         1 9P21        0.0000
     52 H9          2.4360   -2.6370   -0.0930 H         1 9P21        0.0000
     53 H10         1.5960   -3.6290   -1.3090 H         1 9P21        0.0000
     54 H11         2.1810   -1.9770   -3.0620 H         1 9P21        0.0000
     55 H12         3.0220   -0.9840   -1.8470 H         1 9P21        0.0000
     56 H13         3.6420   -2.6010   -2.2590 H         1 9P21        0.0000
     57 H14        -0.9790    0.7350    2.8770 H         1 9P21        0.0000
     58 H15         0.0980   -0.6370    2.5190 H         1 9P21        0.0000
     59 H17        -1.4460    1.8590    0.4860 H         1 9P21        0.0000
     60 H18        -0.5060    2.9330    1.5490 H         1 9P21        0.0000
     61 H19         1.4190    4.1340    0.7120 H         1 9P21        0.0000
     62 H20         1.9740    2.3050    1.4770 H         1 9P21        0.0000
     63 H21         1.2310    1.7610    3.0000 H         1 9P21        0.0000
     64 H22         3.5180    0.8890    0.2730 H         1 9P21        0.0000
     65 H23         5.1490   -3.2700    0.0480 H         1 9P21        0.0000
     66 H24         6.7860   -2.7700    0.5780 H         1 9P21        0.0000
     67 H25         3.2870   -2.3260    4.0040 H         1 9P21        0.0000
     68 H26         1.6840   -0.4630    3.8770 H         1 9P21        0.0000
     69 H27        -4.5010    1.8370    0.0210 H         1 9P21        0.0000
     70 H28        -5.4820    3.7870    1.1540 H         1 9P21        0.0000
     71 H29        -5.0090    4.2000    3.5330 H         1 9P21        0.0000
     72 H30        -3.5550    2.6650    4.7910 H         1 9P21        0.0000
     73 H31        -2.5750    0.7030    3.6770 H         1 9P21        0.0000
     74 H32        -5.1160   -2.7630   -0.7820 H         1 9P21        0.0000
     75 H33        -5.6350   -4.5890   -2.3460 H         1 9P21        0.0000
     76 H34        -3.8220   -5.7420   -3.5440 H         1 9P21        0.0000
     77 H35        -1.4810   -5.0770   -3.1860 H         1 9P21        0.0000
     78 H36        -0.9420   -3.2460   -1.6340 H         1 9P21        0.0000
     79 HN          0.6301    0.4941    0.4522 H         1 9P21        0.0000
@<TRIPOS>BOND
     1    5   21 1
     2    5   20 1
     3    2   21 1
     4    3   20 1
     5    2    3 2
     6    1    2 1
     7    3    4 1
     8    1   19 2
     9    4   18 2
    10   18   19 1
    11   17   18 1
    12   16   17 1
    13   39   40 2
    14   40   41 1
    15   33   34 2
    16   34   35 1
    17   32   33 1
    18   38   39 1
    19   41   42 2
    20    6   38 1
    21   38   43 2
    22    6    7 2
    23    7    8 1
    24   16   22 1
    25   15   16 1
    26   30   31 2
    27   23   31 1
    28   35   36 2
    29    6   10 1
    30    8   32 1
    31   32   37 2
    32    8    9 2
    33   42   43 1
    34   29   30 1
    35    9   10 1
    36   10   11 1
    37   22   23 1
    38    9   15 1
    39   11   12 1
    40   23   24 2
    41   36   37 1
    42   28   29 1
    43   25   29 2
    44   24   25 1
    45   27   28 1
    46   12   13 1
    47   25   26 1
    48   13   14 1
    49   26   27 1
    50    1   44 1
    51    4   45 1
    52    5   46 1
    53    5   47 1
    54   11   48 1
    55   11   49 1
    56   12   50 1
    57   12   51 1
    58   13   52 1
    59   13   53 1
    60   14   54 1
    61   14   55 1
    62   14   56 1
    63   15   57 1
    64   15   58 1
    65   17   59 1
    66   17   60 1
    67   19   61 1
    68   22   62 1
    69   22   63 1
    70   24   64 1
    71   27   65 1
    72   27   66 1
    73   30   67 1
    74   31   68 1
    75   33   69 1
    76   34   70 1
    77   35   71 1
    78   36   72 1
    79   37   73 1
    80   39   74 1
    81   40   75 1
    82   41   76 1
    83   42   77 1
    84   43   78 1
    85   79   16 1
@<TRIPOS>SUBSTRUCTURE
     1 9P21        1 RESIDUE           4 A     9P2     0 ROOT
