@<TRIPOS>MOLECULE
UKA
105 111 1 0 0 
SMALL
USER_CHARGES


@<TRIPOS>ATOM
  1 C1     -21.2800    -8.9320     6.9600 C.3   1 UKA   0.2000 
  2 H1     -22.2650    -8.8099     7.4106 H     1 UKA   0.0800 
  3 N1     -20.3580    -7.5870     8.8630 N.pl3 1 UKA   0.0476 
  4 O1     -19.0260    -8.2270     7.0590 O.3   1 UKA  -0.5600 
  5 C2     -21.0140    -7.9530     5.8160 C.3   1 UKA   0.2000 
  6 H2     -21.4236    -6.9576     5.9875 H     1 UKA   0.0800 
  7 N2     -18.1370    -6.6710     4.2070 N.am  1 UKA  -0.7301 
  8 H2     -17.8337    -7.5723     3.8667 H     1 UKA   0.3700 
  9 O2     -21.6150    -8.3870     4.6020 O.3   1 UKA  -0.6800 
 10 H2     -22.5655    -8.3975     4.7362 H     1 UKA   0.4000 
 11 C3     -19.4860    -7.9980     5.7200 C.3   1 UKA   0.2610 
 12 H3     -19.1093    -8.7707     5.0498 H     1 UKA   0.0800 
 13 N3     -20.3110    -5.5660     9.8510 N.2   1 UKA  -0.5653 
 14 O3     -21.2480   -10.2900     6.5330 O.3   1 UKA  -0.6800 
 15 H3     -21.9612   -10.4128     5.9022 H     1 UKA   0.4000 
 16 C4     -20.1010    -8.6370     7.8830 C.3   1 UKA   0.4556 
 17 H4     -19.8915    -9.5414     8.4542 H     1 UKA   0.0800 
 18 N4     -21.9920    -7.5290    12.5170 N.ar  1 UKA  -0.6200 
 19 O4     -19.4460    -5.6020     5.7010 O.2   1 UKA  -0.5700 
 20 C5     -19.0190    -6.6420     5.2060 C.2   1 UKA   0.5690 
 21 N5     -21.4880    -8.8490    10.6030 N.ar  1 UKA  -0.5670 
 22 O5     -22.6820   -10.9650    11.7760 O.2   1 UKA  -0.5700 
 23 C6     -17.5830    -5.4750     3.5750 C.3   1 UKA   0.1401 
 24 H61    -16.8974    -4.9926     4.2717 H     1 UKA   0.0800 
 25 H62    -18.3981    -4.7920     3.3358 H     1 UKA   0.0800 
 26 N6     -21.3640    -5.3040    12.7430 N.pl3 1 UKA  -0.8691 
 27 H6     -21.0924    -4.4421    12.2920 H     1 UKA   0.4000 
 28 O6     -25.5440   -10.2080    17.0950 O.2   1 UKA  -0.5700 
 29 C7     -16.8440    -5.8060     2.3190 C.3   1 UKA  -0.2400 
 30 H71    -16.4473    -4.8910     1.8790 H     1 UKA   0.0800 
 31 H72    -17.5232    -6.2839     1.6130 H     1 UKA   0.0800 
 32 H73    -16.0225    -6.4845     2.5489 H     1 UKA   0.0800 
 33 N7     -23.3430    -9.7330    13.5410 N.am  1 UKA  -0.7301 
 34 H7     -23.3476    -8.8188    13.9704 H     1 UKA   0.3700 
 35 C8     -20.0020    -6.2670     8.7870 C.2   1 UKA   0.0365 
 36 H8     -19.5096    -5.8405     7.9256 H     1 UKA   0.1500 
 37 N8     -23.4110    -9.9280    16.4150 N.am  1 UKA  -0.7301 
 38 H8     -22.5912    -9.3386    16.4416 H     1 UKA   0.3700 
 39 C9     -20.9160    -6.4950    10.6870 C.ar  1 UKA   0.2272 
 40 N9     -24.2840    -8.5530    18.0010 N.am  1 UKA  -0.7301 
 41 H9     -23.3844    -8.0939    18.0003 H     1 UKA   0.3700 
 42 C10    -20.9650    -7.7360    10.0870 C.ar  1 UKA   0.1054 
 43 N10    -26.5470    -5.9600    20.4730 N.pl3 1 UKA  -0.8382 
 44 C11    -21.4490    -6.4140    11.9930 C.ar  1 UKA   0.4100 
 45 N11    -25.2850    -4.3870    21.5930 N.ar  1 UKA  -0.1790 
 46 H11    -24.7819    -5.1391    22.0417 H     1 UKA   0.4570 
 47 C12    -22.0030    -8.6770    11.8240 C.ar  1 UKA   0.7062 
 48 C13    -21.6420    -5.2760    14.1700 C.3   1 UKA   0.2091 
 49 H131   -20.8245    -4.7635    14.6771 H     1 UKA   0.0800 
 50 H132   -21.7101    -6.3009    14.5348 H     1 UKA   0.0800 
 51 C14    -22.9500    -4.5520    14.4880 C.3   1 UKA   0.2070 
 52 H14    -22.9372    -3.6198    13.9233 H     1 UKA   0.0800 
 53 C15    -23.0780    -4.1500    15.9520 C.ar  1 UKA  -0.1435 
 54 C16    -24.1400    -5.3890    14.0430 C.ar  1 UKA  -0.1435 
 55 C17    -22.1840    -4.6100    16.9090 C.ar  1 UKA  -0.1500 
 56 H17    -21.3619    -5.2439    16.6113 H     1 UKA   0.1500 
 57 C18    -22.3350    -4.2650    18.2400 C.ar  1 UKA  -0.1500 
 58 H18    -21.6320    -4.6304    18.9740 H     1 UKA   0.1500 
 59 C19    -23.3790    -3.4570    18.6320 C.ar  1 UKA  -0.1500 
 60 H19    -23.4986    -3.1918    19.6721 H     1 UKA   0.1500 
 61 C20    -24.2690    -2.9890    17.6930 C.ar  1 UKA  -0.1500 
 62 H20    -25.0864    -2.3521    17.9972 H     1 UKA   0.1500 
 63 C21    -24.1210    -3.3310    16.3610 C.ar  1 UKA  -0.1500 
 64 H21    -24.8243    -2.9569    15.6318 H     1 UKA   0.1500 
 65 C22    -24.8550    -5.0610    12.9000 C.ar  1 UKA  -0.1500 
 66 H22    -24.5683    -4.1967    12.3194 H     1 UKA   0.1500 
 67 C23    -25.9320    -5.8310    12.4970 C.ar  1 UKA  -0.1500 
 68 H23    -26.4797    -5.5650    11.6050 H     1 UKA   0.1500 
 69 C24    -26.3080    -6.9350    13.2290 C.ar  1 UKA  -0.1500 
 70 H24    -27.1482    -7.5353    12.9126 H     1 UKA   0.1500 
 71 C25    -25.6080    -7.2700    14.3660 C.ar  1 UKA  -0.1500 
 72 H25    -25.9008    -8.1350    14.9426 H     1 UKA   0.1500 
 73 C26    -24.5310    -6.5030    14.7730 C.ar  1 UKA  -0.1500 
 74 H26    -23.9893    -6.7736    15.6673 H     1 UKA   0.1500 
 75 C27    -22.7120    -9.8940    12.3770 C.2   1 UKA   0.5438 
 76 C28    -24.0250   -10.8280    14.2140 C.3   1 UKA   0.1401 
 77 H281   -23.9544   -11.7235    13.5966 H     1 UKA   0.0800 
 78 H282   -25.0734   -10.5629    14.3510 H     1 UKA   0.0800 
 79 C29    -23.4070   -11.1110    15.5660 C.3   1 UKA   0.1401 
 80 H291   -23.9760   -11.9006    16.0568 H     1 UKA   0.0800 
 81 H292   -22.3778   -11.4401    15.4227 H     1 UKA   0.0800 
 82 C30    -24.4790    -9.6000    17.1650 C.2   1 UKA   0.6900 
 83 C31    -25.3210    -8.0600    18.9040 C.3   1 UKA   0.2201 
 84 H31    -26.0015    -8.8843    19.1175 H     1 UKA   0.0800 
 85 C32    -24.7140    -7.5890    20.2120 C.3   1 UKA  -0.1600 
 86 H321   -23.9833    -6.8062    20.0086 H     1 UKA   0.0800 
 87 H322   -24.2206    -8.4280    20.7027 H     1 UKA   0.0800 
 88 C33    -25.8000    -7.0380    21.1280 C.3   1 UKA   0.2091 
 89 H331   -26.4889    -7.8420    21.3869 H     1 UKA   0.0800 
 90 H332   -25.3371    -6.6499    22.0353 H     1 UKA   0.0800 
 91 C34    -27.1650    -6.4140    19.2240 C.3   1 UKA   0.2091 
 92 H341   -27.6867    -5.5770    18.7599 H     1 UKA   0.0800 
 93 H342   -27.8779    -7.2077    19.4473 H     1 UKA   0.0800 
 94 C35    -26.1160    -6.9450    18.2560 C.3   1 UKA  -0.1600 
 95 H351   -26.6110    -7.3277    17.3635 H     1 UKA   0.0800 
 96 H352   -25.4405    -6.1359    17.9781 H     1 UKA   0.0800 
 97 C36    -26.9780    -3.6180    20.0720 C.ar  1 UKA  -0.1500 
 98 H36    -27.7623    -3.8475    19.3659 H     1 UKA   0.1500 
 99 C37    -26.6480    -2.3090    20.3710 C.ar  1 UKA  -0.1500 
100 H37    -27.1771    -1.4968    19.8948 H     1 UKA   0.1500 
101 C38    -25.6480    -2.0410    21.2730 C.ar  1 UKA  -0.1500 
102 H38    -25.3793    -1.0240    21.5179 H     1 UKA   0.1500 
103 C39    -24.9980    -3.1040    21.8560 C.ar  1 UKA   0.2110 
104 H39    -24.2119    -2.8931    22.5659 H     1 UKA   0.1500 
105 C40    -26.2650    -4.6340    20.7120 C.ar  1 UKA   0.4610 
@<TRIPOS>BOND
  1   1   2  1   
  2   1   5  1   
  3   1  14  1   
  4   1  16  1   
  5   3  16  1   
  6   3  35  1   
  7   3  42  1   
  8   4  11  1   
  9   4  16  1   
 10   5   6  1   
 11   5   9  1   
 12   5  11  1   
 13   7   8  1   
 14   7  20  am  
 15   7  23  1   
 16   9  10  1   
 17  11  12  1   
 18  11  20  1   
 19  13  35  2   
 20  13  39  1   
 21  14  15  1   
 22  16  17  1   
 23  18  44  ar  
 24  18  47  ar  
 25  19  20  2   
 26  21  42  ar  
 27  21  47  ar  
 28  22  75  2   
 29  23  24  1   
 30  23  25  1   
 31  23  29  1   
 32  26  27  1   
 33  26  44  1   
 34  26  48  1   
 35  28  82  2   
 36  29  30  1   
 37  29  31  1   
 38  29  32  1   
 39  33  34  1   
 40  33  75  am  
 41  33  76  1   
 42  35  36  1   
 43  37  38  1   
 44  37  79  1   
 45  37  82  am  
 46  39  42  ar  
 47  39  44  ar  
 48  40  41  1   
 49  40  82  am  
 50  40  83  1   
 51  43  88  1   
 52  43  91  1   
 53  43 105  1   
 54  45  46  1   
 55  45 103  ar  
 56  45 105  ar  
 57  47  75  1   
 58  48  49  1   
 59  48  50  1   
 60  48  51  1   
 61  51  52  1   
 62  51  53  1   
 63  51  54  1   
 64  53  55  ar  
 65  53  63  ar  
 66  54  65  ar  
 67  54  73  ar  
 68  55  56  1   
 69  55  57  ar  
 70  57  58  1   
 71  57  59  ar  
 72  59  60  1   
 73  59  61  ar  
 74  61  62  1   
 75  61  63  ar  
 76  63  64  1   
 77  65  66  1   
 78  65  67  ar  
 79  67  68  1   
 80  67  69  ar  
 81  69  70  1   
 82  69  71  ar  
 83  71  72  1   
 84  71  73  ar  
 85  73  74  1   
 86  76  77  1   
 87  76  78  1   
 88  76  79  1   
 89  79  80  1   
 90  79  81  1   
 91  83  84  1   
 92  83  85  1   
 93  83  94  1   
 94  85  86  1   
 95  85  87  1   
 96  85  88  1   
 97  88  89  1   
 98  88  90  1   
 99  91  92  1   
100  91  93  1   
101  91  94  1   
102  94  95  1   
103  94  96  1   
104  97  98  1   
105  97  99  ar  
106  97 105  ar  
107  99 100  1   
108  99 101  ar  
109 101 102  1   
110 101 103  ar  
111 103 104  1   
@<TRIPOS>SUBSTRUCTURE
  1 UKA  18 GROUP 4 L **** 0

# MOE 2019.01 (io_trps.svl 2018.10)
