# created with PyMOL 2.3.5
@<TRIPOS>MOLECULE
UKA
104 110 1 0 0
SMALL
USER_CHARGES


@<TRIPOS>ATOM
      1 C1         -5.8040    2.9080   -1.1700 C.3       1 UKA1        0.0000
      2 N1         -5.1190    0.9190    0.1280 N.pl3     1 UKA1        0.0000
      3 O1         -6.8910    2.3450    0.8580 O.3       1 UKA1        0.0000
      4 C2         -7.0600    3.7920   -1.0100 C.3       1 UKA1        0.0000
      5 N2         -9.6770    4.7040    0.3750 N.pl3     1 UKA1        0.0000
      6 O2         -6.7500    5.1590   -1.2900 O.3       1 UKA1        0.0000
      7 C3         -7.4560    3.6170    0.4730 C.3       1 UKA1        0.0000
      8 N3         -5.1500   -1.2620    0.0370 N.2       1 UKA1        0.0000
      9 O3         -4.6770    3.6990   -1.5520 O.3       1 UKA1        0.0000
     10 C4         -5.5890    2.3030    0.2350 C.3       1 UKA1        0.0000
     11 N4         -1.5180   -0.8870   -0.3330 N.2       1 UKA1        0.0000
     12 O4         -9.5160    2.5660    0.9470 O.2       1 UKA1        0.0000
     13 C5         -8.9560    3.5900    0.6150 C.2       1 UKA1        0.0000
     14 N5         -2.6510    1.1320   -0.1410 N.2       1 UKA1        0.0000
     15 O5         -0.2360    2.3880   -0.3630 O.2       1 UKA1        0.0000
     16 C6        -11.1350    4.6770    0.5140 C.3       1 UKA1        0.0000
     17 N6         -2.6190   -2.9700   -0.3110 N.pl3     1 UKA1        0.0000
     18 O6          5.7270   -0.9530   -1.1630 O.2       1 UKA1        0.0000
     19 C7        -11.7030    6.0590    0.1860 C.3       1 UKA1        0.0000
     20 N7          0.9040    0.4940   -0.5650 N.pl3     1 UKA1        0.0000
     21 C8         -5.8940   -0.2000    0.1660 C.2       1 UKA1        0.0000
     22 N8          4.5860    0.9420   -0.9610 N.pl3     1 UKA1        0.0000
     23 C9         -3.8550   -0.8940   -0.0840 C.2       1 UKA1        0.0000
     24 N9          6.9060    0.9280   -1.2220 N.pl3     1 UKA1        0.0000
     25 C10        -3.8180    0.5130   -0.0340 C.2       1 UKA1        0.0000
     26 N10         9.9960    1.8460    0.0970 N.pl3     1 UKA1        0.0000
     27 C11        -2.6410   -1.5880   -0.2460 C.2       1 UKA1        0.0000
     28 N11        10.2810    4.1560    0.4000 N.2       1 UKA1        0.0000
     29 C12        -1.5330    0.4410   -0.2930 C.2       1 UKA1        0.0000
     30 C13        -1.3460   -3.6750   -0.4790 C.3       1 UKA1        0.0000
     31 C14        -1.6000   -5.1840   -0.5210 C.3       1 UKA1        0.0000
     32 C15        -0.3090   -5.9030   -0.8170 C.2       1 UKA1        0.0000
     33 C16        -2.1360   -5.6400    0.8110 C.2       1 UKA1        0.0000
     34 C17         0.8160   -5.6430   -0.0570 C.2       1 UKA1        0.0000
     35 C18         2.0000   -6.3030   -0.3280 C.2       1 UKA1        0.0000
     36 C19         2.0590   -7.2220   -1.3590 C.2       1 UKA1        0.0000
     37 C20         0.9340   -7.4820   -2.1180 C.2       1 UKA1        0.0000
     38 C21        -0.2510   -6.8260   -1.8440 C.2       1 UKA1        0.0000
     39 C22        -3.3000   -6.3830    0.8700 C.2       1 UKA1        0.0000
     40 C23        -3.7920   -6.8010    2.0930 C.2       1 UKA1        0.0000
     41 C24        -3.1190   -6.4760    3.2560 C.2       1 UKA1        0.0000
     42 C25        -1.9550   -5.7330    3.1970 C.2       1 UKA1        0.0000
     43 C26        -1.4600   -5.3200    1.9740 C.2       1 UKA1        0.0000
     44 C27        -0.2490    1.1740   -0.4090 C.2       1 UKA1        0.0000
     45 C28         2.1720    1.2180   -0.6790 C.3       1 UKA1        0.0000
     46 C29         3.3180    0.2180   -0.8460 C.3       1 UKA1        0.0000
     47 C30         5.7390    0.2620   -1.1170 C.2       1 UKA1        0.0000
     48 C31         8.1590    0.1880   -1.3910 C.3       1 UKA1        0.0000
     49 C32         8.6980   -0.2270   -0.0190 C.3       1 UKA1        0.0000
     50 C33         9.0050    1.0260    0.8030 C.3       1 UKA1        0.0000
     51 C34         9.4830    2.2970   -1.2040 C.3       1 UKA1        0.0000
     52 C35         9.1900    1.0810   -2.0860 C.3       1 UKA1        0.0000
     53 C36        10.9130    2.7040    2.1480 C.2       1 UKA1        0.0000
     54 C37        11.3070    3.7880    2.9120 C.2       1 UKA1        0.0000
     55 C38        11.1700    5.0620    2.3760 C.2       1 UKA1        0.0000
     56 C39        10.6480    5.2090    1.1070 C.2       1 UKA1        0.0000
     57 C40        10.3960    2.9260    0.8750 C.2       1 UKA1        0.0000
     58 H1         -5.9820    2.1200   -1.9020 H         1 UKA1        0.0000
     59 H2         -7.8600    3.4420   -1.6630 H         1 UKA1        0.0000
     60 HN2        -9.2290    5.5230    0.1100 H         1 UKA1        0.0000
     61 HO2        -7.5030    5.7590   -1.2050 H         1 UKA1        0.0000
     62 H3         -7.0310    4.4190    1.0760 H         1 UKA1        0.0000
     63 HO3        -4.7580    4.1030   -2.4270 H         1 UKA1        0.0000
     64 H4         -4.8780    2.9030    0.8020 H         1 UKA1        0.0000
     65 H6        -11.5520    3.9410   -0.1730 H         1 UKA1        0.0000
     66 H6A       -11.3970    4.4100    1.5370 H         1 UKA1        0.0000
     67 HN6        -3.4460   -3.4720   -0.2460 H         1 UKA1        0.0000
     68 H7        -11.2860    6.7960    0.8730 H         1 UKA1        0.0000
     69 H7A       -11.4410    6.3270   -0.8370 H         1 UKA1        0.0000
     70 H7B       -12.7880    6.0400    0.2890 H         1 UKA1        0.0000
     71 HN7         0.8940   -0.4750   -0.6010 H         1 UKA1        0.0000
     72 H8         -6.9670   -0.2060    0.2850 H         1 UKA1        0.0000
     73 HN8         4.5960    1.9110   -0.9240 H         1 UKA1        0.0000
     74 HN9         6.9160    1.8970   -1.1850 H         1 UKA1        0.0000
     75 H13        -0.8760   -3.3600   -1.4110 H         1 UKA1        0.0000
     76 H13A       -0.6870   -3.4410    0.3570 H         1 UKA1        0.0000
     77 H14        -2.3280   -5.4080   -1.3010 H         1 UKA1        0.0000
     78 H17         0.7700   -4.9250    0.7480 H         1 UKA1        0.0000
     79 H18         2.8800   -6.1000    0.2660 H         1 UKA1        0.0000
     80 H19         2.9850   -7.7370   -1.5710 H         1 UKA1        0.0000
     81 H20         0.9800   -8.2000   -2.9240 H         1 UKA1        0.0000
     82 H21        -1.1320   -7.0320   -2.4350 H         1 UKA1        0.0000
     83 H22        -3.8260   -6.6360   -0.0380 H         1 UKA1        0.0000
     84 H23        -4.7010   -7.3810    2.1390 H         1 UKA1        0.0000
     85 H24        -3.5030   -6.8030    4.2110 H         1 UKA1        0.0000
     86 H25        -1.4290   -5.4790    4.1060 H         1 UKA1        0.0000
     87 H26        -0.5500   -4.7400    1.9280 H         1 UKA1        0.0000
     88 H28         2.1370    1.8780   -1.5460 H         1 UKA1        0.0000
     89 H28A        2.3360    1.8090    0.2220 H         1 UKA1        0.0000
     90 H29         3.1550   -0.3740   -1.7470 H         1 UKA1        0.0000
     91 H29A        3.3530   -0.4430    0.0200 H         1 UKA1        0.0000
     92 H31         7.9790   -0.7000   -1.9970 H         1 UKA1        0.0000
     93 H32         7.9500   -0.8280    0.4980 H         1 UKA1        0.0000
     94 H32A        9.6090   -0.8110   -0.1480 H         1 UKA1        0.0000
     95 H33         9.4020    0.7340    1.7760 H         1 UKA1        0.0000
     96 H33A        8.0900    1.6020    0.9430 H         1 UKA1        0.0000
     97 H34         8.5660    2.8670   -1.0540 H         1 UKA1        0.0000
     98 H34A       10.2280    2.9270   -1.6890 H         1 UKA1        0.0000
     99 H35        10.1100    0.5180   -2.2470 H         1 UKA1        0.0000
    100 H35A        8.7950    1.4150   -3.0460 H         1 UKA1        0.0000
    101 H36        11.0060    1.7000    2.5330 H         1 UKA1        0.0000
    102 H37        11.7120    3.6470    3.9030 H         1 UKA1        0.0000
    103 H38        11.4670    5.9290    2.9470 H         1 UKA1        0.0000
    104 H39        10.5400    6.1980    0.6860 H         1 UKA1        0.0000
@<TRIPOS>BOND
     1    1    4 1
     2    1    9 1
     3    1   10 1
     4    1   58 1
     5    2   10 1
     6    2   21 1
     7    2   25 1
     8    3    7 1
     9    3   10 1
    10    4    6 1
    11    4    7 1
    12    4   59 1
    13    5   16 1
    14    5   13 1
    15    5   60 1
    16    6   61 1
    17    7   13 1
    18    7   62 1
    19    8   21 2
    20    8   23 1
    21    9   63 1
    22   10   64 1
    23   11   29 1
    24   11   27 2
    25   12   13 2
    26   14   25 1
    27   14   29 2
    28   15   44 2
    29   16   19 1
    30   16   65 1
    31   16   66 1
    32   17   27 1
    33   17   30 1
    34   17   67 1
    35   18   47 2
    36   19   68 1
    37   19   69 1
    38   19   70 1
    39   20   44 1
    40   20   45 1
    41   20   71 1
    42   21   72 1
    43   22   46 1
    44   22   47 1
    45   22   73 1
    46   23   25 2
    47   23   27 1
    48   24   47 1
    49   24   48 1
    50   24   74 1
    51   26   50 1
    52   26   57 1
    53   26   51 1
    54   28   57 2
    55   28   56 1
    56   29   44 1
    57   30   31 1
    58   30   75 1
    59   30   76 1
    60   31   33 1
    61   31   32 1
    62   31   77 1
    63   32   34 2
    64   32   38 1
    65   33   43 2
    66   33   39 1
    67   34   35 1
    68   34   78 1
    69   35   36 2
    70   35   79 1
    71   36   37 1
    72   36   80 1
    73   37   38 2
    74   37   81 1
    75   38   82 1
    76   39   40 2
    77   39   83 1
    78   40   41 1
    79   40   84 1
    80   41   42 2
    81   41   85 1
    82   42   43 1
    83   42   86 1
    84   43   87 1
    85   45   46 1
    86   45   88 1
    87   45   89 1
    88   46   90 1
    89   46   91 1
    90   48   49 1
    91   48   52 1
    92   48   92 1
    93   49   50 1
    94   49   93 1
    95   49   94 1
    96   50   95 1
    97   50   96 1
    98   51   52 1
    99   51   97 1
   100   51   98 1
   101   52   99 1
   102   52  100 1
   103   53   54 2
   104   53   57 1
   105   53  101 1
   106   54   55 1
   107   54  102 1
   108   55   56 2
   109   55  103 1
   110   56  104 1
@<TRIPOS>SUBSTRUCTURE
     1 UKA1        1 RESIDUE           4 A     UKA     0 ROOT
