# created with PyMOL 2.3.5
@<TRIPOS>MOLECULE
XAC
59 61 1                 
SMALL
USER_CHARGES
@<TRIPOS>ATOM
1	  C1	4.069	-1.688	0.290	C.2	1	XAC0	0.000	
2	  N1	4.357	1.041	0.401	N.pl3	1	XAC0	0.000	
3	  O1	3.960	-2.901	0.242	O.2	1	XAC0	0.000	
4	  C2	5.425	0.221	0.407	C.2	1	XAC0	0.000	
5	  N2	5.289	-1.115	0.353	N.pl3	1	XAC0	0.000	
6	  O2	6.540	0.701	0.468	O.2	1	XAC0	0.000	
7	  C3	0.947	0.107	0.233	C.2	1	XAC0	0.000	
8	  N3	1.860	1.056	0.308	N.2	1	XAC0	0.000	
9	  O3	-4.594	0.939	0.059	O.3	1	XAC0	0.000	
10	  C4	3.076	0.514	0.332	C.2	1	XAC0	0.000	
11	  N4	1.562	-1.108	0.213	N.pl3	1	XAC0	0.000	
12	  O4	-7.163	1.371	-0.020	O.2	1	XAC0	0.000	
13	  C5	2.922	-0.868	0.275	C.2	1	XAC0	0.000	
14	  N5	-7.838	-0.739	-0.136	N.pl3	1	XAC0	0.000	
15	  C6	6.484	-1.962	0.363	C.3	1	XAC0	0.000	
16	  N6	-11.543	-1.171	-0.295	N.3	1	XAC0	0.000	
17	  C7	6.950	-2.204	-1.075	C.3	1	XAC0	0.000	
18	  C8	4.549	2.492	0.462	C.3	1	XAC0	0.000	
19	  C9	4.665	3.051	-0.958	C.3	1	XAC0	0.000	
20	 C10	4.865	4.566	-0.894	C.3	1	XAC0	0.000	
21	 C11	8.198	-3.089	-1.064	C.3	1	XAC0	0.000	
22	 C12	-3.251	0.738	0.101	C.2	1	XAC0	0.000	
23	 C13	-2.390	1.824	0.180	C.2	1	XAC0	0.000	
24	 C14	-1.027	1.624	0.223	C.2	1	XAC0	0.000	
25	 C15	-0.513	0.326	0.187	C.2	1	XAC0	0.000	
26	 C16	-1.382	-0.764	0.107	C.2	1	XAC0	0.000	
27	 C17	-2.744	-0.555	0.070	C.2	1	XAC0	0.000	
28	 C18	-5.422	-0.222	-0.023	C.3	1	XAC0	0.000	
29	 C19	-6.870	0.194	-0.059	C.2	1	XAC0	0.000	
30	 C20	-9.245	-0.334	-0.172	C.3	1	XAC0	0.000	
31	 C21	-10.132	-1.578	-0.259	C.3	1	XAC0	0.000	
32	 HN4	1.130	-1.975	0.162	 H	1	XAC0	0.000	
33	 HN5	-7.603	-1.680	-0.168	 H	1	XAC0	0.000	
34	  H6	7.277	-1.466	0.923	 H	1	XAC0	0.000	
35	 H6A	6.249	-2.917	0.834	 H	1	XAC0	0.000	
36	 HN6	-12.150	-1.976	-0.352	 H	1	XAC0	0.000	
37	HN6A	-11.776	-0.600	0.504	 H	1	XAC0	0.000	
38	  H7	6.157	-2.700	-1.635	 H	1	XAC0	0.000	
39	 H7A	7.185	-1.250	-1.546	 H	1	XAC0	0.000	
40	  H8	3.697	2.950	0.964	 H	1	XAC0	0.000	
41	 H8A	5.460	2.715	1.016	 H	1	XAC0	0.000	
42	  H9	5.517	2.592	-1.460	 H	1	XAC0	0.000	
43	 H9A	3.753	2.827	-1.512	 H	1	XAC0	0.000	
44	 H10	4.948	4.964	-1.906	 H	1	XAC0	0.000	
45	H10A	4.013	5.024	-0.392	 H	1	XAC0	0.000	
46	H10B	5.777	4.789	-0.340	 H	1	XAC0	0.000	
47	 H11	8.529	-3.261	-2.089	 H	1	XAC0	0.000	
48	H11A	8.991	-2.593	-0.505	 H	1	XAC0	0.000	
49	H11B	7.963	-4.043	-0.593	 H	1	XAC0	0.000	
50	 H13	-2.788	2.828	0.208	 H	1	XAC0	0.000	
51	 H14	-0.358	2.470	0.285	 H	1	XAC0	0.000	
52	 H16	-0.988	-1.769	0.079	 H	1	XAC0	0.000	
53	 H17	-3.417	-1.398	0.013	 H	1	XAC0	0.000	
54	 H18	-5.181	-0.778	-0.929	 H	1	XAC0	0.000	
55	H18A	-5.248	-0.855	0.848	 H	1	XAC0	0.000	
56	 H20	-9.487	0.221	0.734	 H	1	XAC0	0.000	
57	H20A	-9.420	0.298	-1.043	 H	1	XAC0	0.000	
58	 H21	-9.958	-2.210	0.612	 H	1	XAC0	0.000	
59	H21A	-9.891	-2.133	-1.166	 H	1	XAC0	0.000	
@<TRIPOS>BOND
1 1 3 2
2 1 5 1
3 1 13 1
4 2 4 1
5 2 10 1
6 2 18 1
7 4 5 1
8 4 6 2
9 5 15 1
10 7 8 2
11 7 11 1
12 7 25 1
13 8 10 1
14 9 22 1
15 9 28 1
16 10 13 2
17 11 13 1
18 12 29 2
19 14 29 1
20 14 30 1
21 15 17 1
22 16 31 1
23 17 21 1
24 18 19 1
25 19 20 1
26 22 23 2
27 22 27 1
28 23 24 1
29 24 25 2
30 25 26 1
31 26 27 2
32 28 29 1
33 30 31 1
34 11 32 1
35 14 33 1
36 15 34 1
37 15 35 1
38 16 36 1
39 16 37 1
40 17 38 1
41 17 39 1
42 18 40 1
43 18 41 1
44 19 42 1
45 19 43 1
46 20 44 1
47 20 45 1
48 20 46 1
49 21 47 1
50 21 48 1
51 21 49 1
52 23 50 1
53 24 51 1
54 26 52 1
55 27 53 1
56 28 54 1
57 28 55 1
58 30 56 1
59 30 57 1
60 31 58 1
61 31 59 1
@<TRIPOS>SUBSTRUCTURE
1	XAC0	1	GROUP	1 ****	XAC
