# created with PyMOL 2.3.5
@<TRIPOS>MOLECULE
GMJ
50 52 1 0 0
SMALL
USER_CHARGES


@<TRIPOS>ATOM
      1 H01         0.4410   -0.0400   -1.1960 H         1 GMJ1        0.0000
      2 C10        -1.9700   -0.0620   -0.2640 C.3       1 GMJ1        0.0000
      3 C11        -1.0680   -1.2800   -0.4760 C.3       1 GMJ1        0.0000
      4 C01        -6.3510   -0.7390   -0.1730 C.2       1 GMJ1        0.0000
      5 C02        -7.7200   -0.8870   -0.1320 C.2       1 GMJ1        0.0000
      6 C03        -8.5340    0.2190    0.0650 C.2       1 GMJ1        0.0000
      7 C04        -7.9770    1.4790    0.2230 C.2       1 GMJ1        0.0000
      8 C05        -6.6090    1.6410    0.1840 C.2       1 GMJ1        0.0000
      9 C06        -5.7820    0.5290   -0.0100 C.2       1 GMJ1        0.0000
     10 C07        -4.3220    0.6940   -0.0520 C.2       1 GMJ1        0.0000
     11 C09        -3.4340   -0.5060   -0.2610 C.3       1 GMJ1        0.0000
     12 C13         1.2180   -1.9460   -0.9130 C.3       1 GMJ1        0.0000
     13 C14         2.6510   -1.4270   -1.0440 C.3       1 GMJ1        0.0000
     14 C15         3.1160   -0.8790    0.3080 C.3       1 GMJ1        0.0000
     15 C16         2.1550    0.2240    0.7600 C.3       1 GMJ1        0.0000
     16 C17         0.7360   -0.3430    0.8390 C.3       1 GMJ1        0.0000
     17 C18         4.5060   -0.3130    0.1710 C.2       1 GMJ1        0.0000
     18 C19         5.3680   -0.3300    1.2510 C.2       1 GMJ1        0.0000
     19 C20         6.6430    0.1890    1.1270 C.2       1 GMJ1        0.0000
     20 C21         7.0560    0.7260   -0.0800 C.2       1 GMJ1        0.0000
     21 C22         6.1930    0.7430   -1.1610 C.2       1 GMJ1        0.0000
     22 C23         4.9200    0.2180   -1.0360 C.2       1 GMJ1        0.0000
     23 F26        -9.8760    0.0670    0.1040 F         1 GMJ1        0.0000
     24 N12         0.3380   -0.8540   -0.4790 N.3       1 GMJ1        0.0000
     25 O08        -3.8320    1.7950    0.0810 O.2       1 GMJ1        0.0000
     26 O25         3.1220   -1.9320    1.2740 O.3       1 GMJ1        0.0000
     27 CL1         8.6570    1.3780   -0.2370 Cl        1 GMJ1        0.0000
     28 H1         -1.7300    0.4060    0.6910 H         1 GMJ1        0.0000
     29 H2         -1.8090    0.6540   -1.0700 H         1 GMJ1        0.0000
     30 H3         -1.2290   -1.9960    0.3300 H         1 GMJ1        0.0000
     31 H4         -1.3080   -1.7480   -1.4310 H         1 GMJ1        0.0000
     32 H5         -5.7180   -1.6010   -0.3260 H         1 GMJ1        0.0000
     33 H6         -8.1600   -1.8650   -0.2530 H         1 GMJ1        0.0000
     34 H7         -8.6160    2.3360    0.3750 H         1 GMJ1        0.0000
     35 H8         -6.1770    2.6230    0.3060 H         1 GMJ1        0.0000
     36 H9         -3.6740   -0.9740   -1.2160 H         1 GMJ1        0.0000
     37 H10        -3.5950   -1.2220    0.5450 H         1 GMJ1        0.0000
     38 H11         0.8790   -2.3250   -1.8780 H         1 GMJ1        0.0000
     39 H12         1.1890   -2.7500   -0.1780 H         1 GMJ1        0.0000
     40 H13         3.3070   -2.2420   -1.3510 H         1 GMJ1        0.0000
     41 H14         2.6840   -0.6330   -1.7900 H         1 GMJ1        0.0000
     42 H15         2.4560    0.5890    1.7420 H         1 GMJ1        0.0000
     43 H16         2.1800    1.0450    0.0430 H         1 GMJ1        0.0000
     44 H17         0.7090   -1.1540    1.5660 H         1 GMJ1        0.0000
     45 H18         0.0470    0.4440    1.1460 H         1 GMJ1        0.0000
     46 H19         5.0460   -0.7490    2.1930 H         1 GMJ1        0.0000
     47 H20         7.3170    0.1760    1.9710 H         1 GMJ1        0.0000
     48 H21         6.5150    1.1610   -2.1030 H         1 GMJ1        0.0000
     49 H22         4.2460    0.2310   -1.8800 H         1 GMJ1        0.0000
     50 H24         3.4070   -1.6560    2.1550 H         1 GMJ1        0.0000
@<TRIPOS>BOND
     1    2   11 1
     2    2   28 1
     3    2   29 1
     4    2    3 1
     5    3   30 1
     6    3   31 1
     7    4    5 2
     8    4   32 1
     9    5    6 1
    10    5   33 1
    11    6   23 1
    12    6    7 2
    13    7   34 1
    14    7    8 1
    15    8   35 1
    16    4    9 1
    17    8    9 2
    18    9   10 1
    19   10   11 1
    20   11   36 1
    21   11   37 1
    22   12   24 1
    23   12   38 1
    24   12   39 1
    25   12   13 1
    26   13   40 1
    27   13   41 1
    28   13   14 1
    29   14   26 1
    30   14   15 1
    31   15   16 1
    32   15   42 1
    33   15   43 1
    34   16   24 1
    35   16   44 1
    36   16   45 1
    37   14   17 1
    38   17   18 2
    39   18   46 1
    40   18   19 1
    41   19   47 1
    42   19   20 2
    43   20   21 1
    44   21   22 2
    45   21   48 1
    46   17   22 1
    47   22   49 1
    48    1   24 1
    49    3   24 1
    50   10   25 2
    51   26   50 1
    52   20   27 1
@<TRIPOS>SUBSTRUCTURE
     1 GMJ1        1 RESIDUE           4 A     GMJ     0 ROOT
