# created with PyMOL 2.3.5
@<TRIPOS>MOLECULE
9AO
87 89 1 0 0
SMALL
USER_CHARGES


@<TRIPOS>ATOM
      1 C1         11.7400   -1.3750   -1.2620 C.3       1 9AO1        0.0000
      2 N2          4.1060    1.3510    1.3580 N.2       1 9AO1        0.0000
      3 C2         10.3610   -1.5690   -0.6870 C.2       1 9AO1        0.0000
      4 O2         -3.4110    1.1700   -1.0240 O.2       1 9AO1        0.0000
      5 N3          3.4590    0.2750   -0.6020 N.pl3     1 9AO1        0.0000
      6 N1          6.1490    0.4640    0.6800 N.pl3     1 9AO1        0.0000
      7 C3          8.2030   -0.6980    0.0390 C.3       1 9AO1        0.0000
      8 O3         -4.7560   -0.6930   -0.4490 O.2       1 9AO1        0.0000
      9 C25        -3.9480   -1.2940    0.2270 C.2       1 9AO1        0.0000
     10 N6         -3.9870   -2.6400    0.2870 N.pl3     1 9AO1        0.0000
     11 C26        -5.0050   -3.3770   -0.4650 C.3       1 9AO1        0.0000
     12 C27        -4.8310   -4.8560   -0.2290 C.2       1 9AO1        0.0000
     13 C32        -5.4910   -5.4690    0.8200 C.2       1 9AO1        0.0000
     14 C31        -5.3330   -6.8240    1.0380 C.2       1 9AO1        0.0000
     15 C30        -4.5120   -7.5690    0.2040 C.2       1 9AO1        0.0000
     16 O4         -4.3550   -8.9020    0.4170 O.3       1 9AO1        0.0000
     17 C29        -3.8510   -6.9510   -0.8470 C.2       1 9AO1        0.0000
     18 C28        -4.0170   -5.5960   -1.0650 C.2       1 9AO1        0.0000
     19 C10        -2.9000   -0.5350    1.0000 C.3       1 9AO1        0.0000
     20 N5         -3.3300    0.8550    1.1700 N.pl3     1 9AO1        0.0000
     21 C11        -3.5600    1.6270    0.0900 C.2       1 9AO1        0.0000
     22 C12        -4.0020    3.0570    0.2650 C.3       1 9AO1        0.0000
     23 C19        -2.9550    3.8150    1.0380 C.2       1 9AO1        0.0000
     24 C24        -1.6370    3.7930    0.6210 C.2       1 9AO1        0.0000
     25 C23        -0.6760    4.4890    1.3300 C.2       1 9AO1        0.0000
     26 C22        -1.0320    5.2080    2.4560 C.2       1 9AO1        0.0000
     27 C21        -2.3510    5.2310    2.8720 C.2       1 9AO1        0.0000
     28 C20        -3.3120    4.5380    2.1600 C.2       1 9AO1        0.0000
     29 C13        -4.1890    3.6940   -1.0880 C.2       1 9AO1        0.0000
     30 C18        -5.3850    4.3120   -1.4020 C.2       1 9AO1        0.0000
     31 C17        -5.5560    4.8970   -2.6430 C.2       1 9AO1        0.0000
     32 C16        -4.5310    4.8640   -3.5690 C.2       1 9AO1        0.0000
     33 C15        -3.3340    4.2470   -3.2550 C.2       1 9AO1        0.0000
     34 C14        -3.1610    3.6670   -2.0120 C.2       1 9AO1        0.0000
     35 C9         -1.5770   -0.5690    0.2330 C.3       1 9AO1        0.0000
     36 C8         -0.4830    0.0930    1.0740 C.3       1 9AO1        0.0000
     37 C7          0.8410    0.0590    0.3080 C.3       1 9AO1        0.0000
     38 N4          1.8880    0.6920    1.1130 N.pl3     1 9AO1        0.0000
     39 C6          3.1610    0.7790    0.6310 C.2       1 9AO1        0.0000
     40 C5          5.3330    1.5240    0.8460 C.2       1 9AO1        0.0000
     41 O1          5.7100    2.6380    0.5310 O.2       1 9AO1        0.0000
     42 C4          7.4900    0.6530    0.1210 C.3       1 9AO1        0.0000
     43 N           9.5440   -0.5090   -0.5210 N.pl3     1 9AO1        0.0000
     44 O           9.9850   -2.6790   -0.3730 O.2       1 9AO1        0.0000
     45 C          12.4530   -2.7260   -1.3440 C.3       1 9AO1        0.0000
     46 H1         11.6600   -0.9450   -2.2600 H         1 9AO1        0.0000
     47 H2         12.3090   -0.7020   -0.6210 H         1 9AO1        0.0000
     48 H4          4.3780    0.2620   -0.9110 H         1 9AO1        0.0000
     49 H5          5.8490   -0.4230    0.9310 H         1 9AO1        0.0000
     50 H6          8.2830   -1.1280    1.0370 H         1 9AO1        0.0000
     51 H7          7.6340   -1.3710   -0.6020 H         1 9AO1        0.0000
     52 H8         -3.3400   -3.1200    0.8270 H         1 9AO1        0.0000
     53 H9         -5.9970   -3.0700   -0.1310 H         1 9AO1        0.0000
     54 H10        -4.8980   -3.1640   -1.5280 H         1 9AO1        0.0000
     55 H11        -6.1310   -4.8890    1.4680 H         1 9AO1        0.0000
     56 H12        -5.8480   -7.3030    1.8580 H         1 9AO1        0.0000
     57 H13        -4.9970   -9.4530   -0.0510 H         1 9AO1        0.0000
     58 H14        -3.2110   -7.5280   -1.4980 H         1 9AO1        0.0000
     59 H15        -3.5060   -5.1160   -1.8860 H         1 9AO1        0.0000
     60 H16        -2.7660   -0.9960    1.9780 H         1 9AO1        0.0000
     61 H17        -3.4500    1.2200    2.0610 H         1 9AO1        0.0000
     62 H18        -4.9450    3.0810    0.8110 H         1 9AO1        0.0000
     63 H19        -1.3580    3.2310   -0.2580 H         1 9AO1        0.0000
     64 H20         0.3540    4.4700    1.0050 H         1 9AO1        0.0000
     65 H21        -0.2810    5.7510    3.0100 H         1 9AO1        0.0000
     66 H22        -2.6290    5.7930    3.7510 H         1 9AO1        0.0000
     67 H23        -4.3430    4.5600    2.4830 H         1 9AO1        0.0000
     68 H24        -6.1860    4.3370   -0.6780 H         1 9AO1        0.0000
     69 H25        -6.4910    5.3790   -2.8880 H         1 9AO1        0.0000
     70 H26        -4.6640    5.3210   -4.5390 H         1 9AO1        0.0000
     71 H27        -2.5330    4.2210   -3.9790 H         1 9AO1        0.0000
     72 H28        -2.2270    3.1840   -1.7670 H         1 9AO1        0.0000
     73 H29        -1.3020   -1.6040    0.0290 H         1 9AO1        0.0000
     74 H30        -1.6880   -0.0300   -0.7070 H         1 9AO1        0.0000
     75 H31        -0.7580    1.1270    1.2790 H         1 9AO1        0.0000
     76 H32        -0.3720   -0.4460    2.0150 H         1 9AO1        0.0000
     77 H33         1.1160   -0.9760    0.1030 H         1 9AO1        0.0000
     78 H34         0.7300    0.5980   -0.6330 H         1 9AO1        0.0000
     79 H35         1.6760    1.0500    1.9890 H         1 9AO1        0.0000
     80 H36         7.4100    1.0830   -0.8780 H         1 9AO1        0.0000
     81 H37         8.0600    1.3260    0.7620 H         1 9AO1        0.0000
     82 H38         9.8450    0.3780   -0.7710 H         1 9AO1        0.0000
     83 H39        13.4510   -2.5860   -1.7600 H         1 9AO1        0.0000
     84 H40        12.5330   -3.1560   -0.3450 H         1 9AO1        0.0000
     85 H41        11.8840   -3.3990   -1.9850 H         1 9AO1        0.0000
     86 H3          2.7510   -0.0700   -1.1690 H         1 9AO1        0.0000
     87 HN          3.9035    1.6575    2.2988 H         1 9AO1        0.0000
@<TRIPOS>BOND
     1    3   44 2
     2    1    3 1
     3    3   43 1
     4    1   45 1
     5    7   43 1
     6    7   42 1
     7    6   42 1
     8    6   40 1
     9    2   40 1
    10   40   41 2
    11    2   39 2
    12   36   37 1
    13   37   38 1
    14   38   39 1
    15    5   39 1
    16   35   36 1
    17   19   35 1
    18    9   19 1
    19   19   20 1
    20    8    9 2
    21    9   10 1
    22   10   11 1
    23   20   21 1
    24   11   12 1
    25   33   34 2
    26   29   34 1
    27   21   22 1
    28    4   21 2
    29   22   29 1
    30   22   23 1
    31   12   18 2
    32   17   18 1
    33   12   13 1
    34   32   33 1
    35   29   30 2
    36   23   24 2
    37   24   25 1
    38   23   28 1
    39   15   17 2
    40   31   32 2
    41   13   14 2
    42   25   26 2
    43   30   31 1
    44   27   28 2
    45   14   15 1
    46   15   16 1
    47   26   27 1
    48    1   46 1
    49    1   47 1
    50    5   48 1
    51    6   49 1
    52    7   50 1
    53    7   51 1
    54   10   52 1
    55   11   53 1
    56   11   54 1
    57   13   55 1
    58   14   56 1
    59   16   57 1
    60   17   58 1
    61   18   59 1
    62   19   60 1
    63   20   61 1
    64   22   62 1
    65   24   63 1
    66   25   64 1
    67   26   65 1
    68   27   66 1
    69   28   67 1
    70   30   68 1
    71   31   69 1
    72   32   70 1
    73   33   71 1
    74   34   72 1
    75   35   73 1
    76   35   74 1
    77   36   75 1
    78   36   76 1
    79   37   77 1
    80   37   78 1
    81   38   79 1
    82   42   80 1
    83   42   81 1
    84   43   82 1
    85   45   83 1
    86   45   84 1
    87   45   85 1
    88    5   86 1
    89   87    2 1
@<TRIPOS>SUBSTRUCTURE
     1 9AO1        1 RESIDUE           4 A     9AO     0 ROOT
