@<TRIPOS>MOLECULE
97V
72 76 1 0 0 
SMALL
USER_CHARGES


@<TRIPOS>ATOM
  1 CAA     53.5700   -13.1520   -58.7280 C.3   1 Q97V  -0.1348 
  2 HAA1    54.0252   -13.9593   -58.1543 H     1 Q97V   0.0800 
  3 HAA2    53.6362   -13.3801   -59.7918 H     1 Q97V   0.0800 
  4 HAA3    52.5230   -13.0492   -58.4429 H     1 Q97V   0.0800 
  5 CAE     54.3860   -11.1730   -56.6030 C.ar  1 Q97V  -0.0090 
  6 CAF     54.1190   -12.1600   -55.6530 C.ar  1 Q97V  -0.1500 
  7 HAF     53.9484   -13.1780   -55.9707 H     1 Q97V   0.1500 
  8 CAG     54.0710   -11.8410   -54.2980 C.ar  1 Q97V  -0.1500 
  9 HAG     53.8639   -12.6098   -53.5683 H     1 Q97V   0.1500 
 10 CAH     54.2910   -10.5260   -53.8850 C.ar  1 Q97V  -0.1500 
 11 HAH     54.2683   -10.2863   -52.8322 H     1 Q97V   0.1500 
 12 CAI     54.5400    -9.5170   -54.8170 C.ar  1 Q97V   0.1170 
 13 CAK     54.9330    -6.9350   -55.0930 C.2   1 Q97V   0.6900 
 14 CAN     55.3570    -4.4180   -55.2170 C.3   1 Q97V   0.2836 
 15 HAN1    55.6346    -3.6032   -54.5483 H     1 Q97V   0.0800 
 16 HAN2    56.1555    -4.5822   -55.9406 H     1 Q97V   0.0800 
 17 CAO     54.0850    -4.0240   -55.9700 C.ar  1 Q97V  -0.1435 
 18 CAP     52.8290    -4.1230   -55.3640 C.ar  1 Q97V  -0.1500 
 19 HAP     52.7438    -4.4733   -54.3459 H     1 Q97V   0.1500 
 20 CAQ     51.6890    -3.7680   -56.0790 C.ar  1 Q97V  -0.1500 
 21 HAQ     50.7138    -3.8521   -55.6226 H     1 Q97V   0.1500 
 22 CAR     51.8130    -3.3020   -57.3910 C.ar  1 Q97V   0.0862 
 23 CAS     50.5650    -2.9210   -58.1900 C.2   1 Q97V   0.5438 
 24 CAV     48.0270    -3.0760   -58.4370 C.2   1 Q97V   0.8135 
 25 NAJ     54.7830    -8.1600   -54.3040 N.am  1 Q97V  -0.5470 
 26 HAJ     54.8540    -8.0625   -53.3012 H     1 Q97V   0.3700 
 27 NAM     55.1820    -5.6360   -54.4260 N.am  1 Q97V  -0.4771 
 28 NAU     49.2580    -3.3720   -57.7250 N.am  1 Q97V  -0.5060 
 29 HAU     49.2069    -3.9122   -56.8731 H     1 Q97V   0.3700 
 30 NAW     46.7740    -3.4700   -58.0720 N.2   1 Q97V  -0.6188 
 31 NAX     45.9130    -3.0150   -58.9990 N.2   1 Q97V  -0.2500 
 32 NAY     46.5840    -2.3740   -59.9280 N.pl3 1 Q97V  -0.2500 
 33 HAY     46.1849    -1.9403   -60.7482 H     1 Q97V   0.0000 
 34 NAZ     47.8890    -2.3900   -59.6080 N.2   1 Q97V  -0.6188 
 35 OAC     56.0120   -11.7420   -58.8940 O.2   1 Q97V  -0.6500 
 36 OAD     53.7480   -10.3890   -59.2590 O.2   1 Q97V  -0.6500 
 37 OAL     54.8400    -6.9830   -56.2770 O.2   1 Q97V  -0.5700 
 38 OAT     50.6750    -2.2790   -59.1860 O.2   1 Q97V  -0.5700 
 39 SAB     54.4470   -11.5960   -58.3860 S.o2  1 Q97V   1.2038 
 40 CBA     53.0710    -3.2000   -57.9870 C.ar  1 Q97V  -0.1500 
 41 HBA     53.1605    -2.8331   -58.9988 H     1 Q97V   0.1500 
 42 CBB     54.2080    -3.5700   -57.2800 C.ar  1 Q97V  -0.1500 
 43 HBB     55.1812    -3.5058   -57.7438 H     1 Q97V   0.1500 
 44 CBC     55.3430    -5.5020   -52.9740 C.ar  1 Q97V   0.1170 
 45 CBD     54.5320    -4.6220   -52.2410 C.ar  1 Q97V  -0.1500 
 46 HBD     53.7462    -4.0747   -52.7403 H     1 Q97V   0.1500 
 47 CBE     54.7350    -4.4490   -50.8670 C.ar  1 Q97V  -0.1500 
 48 HBE     54.0901    -3.7861   -50.3093 H     1 Q97V   0.1500 
 49 CBF     55.7710    -5.1310   -50.2080 C.ar  1 Q97V  -0.1435 
 50 CBG     55.9950    -4.9810   -48.6690 C.3   1 Q97V   0.0635 
 51 HBG     55.4869    -5.8227   -48.1985 H     1 Q97V   0.0800 
 52 CBH     57.4930    -5.0900   -48.2920 C.3   1 Q97V  -0.1600 
 53 HBH1    58.0423    -4.3217   -48.8361 H     1 Q97V   0.0800 
 54 HBH2    57.8530    -6.0745   -48.5909 H     1 Q97V   0.0800 
 55 CBI     57.7630    -4.9090   -46.7900 C.3   1 Q97V  -0.1600 
 56 HBI1    58.8397    -4.8349   -46.6370 H     1 Q97V   0.0800 
 57 HBI2    57.3800    -5.7814   -46.2606 H     1 Q97V   0.0800 
 58 CBJ     57.0970    -3.6500   -46.2070 C.3   1 Q97V  -0.1600 
 59 HBJ1    57.6296    -2.7740   -46.5772 H     1 Q97V   0.0800 
 60 HBJ2    57.1738    -3.6896   -45.1204 H     1 Q97V   0.0800 
 61 CBK     55.6080    -3.5150   -46.5880 C.3   1 Q97V  -0.1600 
 62 HBK1    55.2688    -2.5190   -46.3033 H     1 Q97V   0.0800 
 63 HBK2    55.0417    -4.2638   -46.0342 H     1 Q97V   0.0800 
 64 CBL     55.3340    -3.7110   -48.0900 C.3   1 Q97V  -0.1600 
 65 HBL1    54.2566    -3.7827   -48.2390 H     1 Q97V   0.0800 
 66 HBL2    55.7184    -2.8445   -48.6281 H     1 Q97V   0.0800 
 67 CBM     56.5830    -6.0000   -50.9530 C.ar  1 Q97V  -0.1500 
 68 HBM     57.3613    -6.5592   -50.4551 H     1 Q97V   0.1500 
 69 CBN     56.3990    -6.1520   -52.3290 C.ar  1 Q97V  -0.1500 
 70 HBN     57.0751    -6.7740   -52.8968 H     1 Q97V   0.1500 
 71 CBO     54.6080    -9.8530   -56.1780 C.ar  1 Q97V  -0.1500 
 72 HBO     54.8335    -9.0881   -56.9064 H     1 Q97V   0.1500 
@<TRIPOS>BOND
  1   1   2  1   
  2   1   3  1   
  3   1   4  1   
  4   1  39  1   
  5   5   6  ar  
  6   5  39  1   
  7   5  71  ar  
  8   6   7  1   
  9   6   8  ar  
 10   8   9  1   
 11   8  10  ar  
 12  10  11  1   
 13  10  12  ar  
 14  12  25  1   
 15  12  71  ar  
 16  13  25  am  
 17  13  27  am  
 18  13  37  2   
 19  14  15  1   
 20  14  16  1   
 21  14  17  1   
 22  14  27  1   
 23  17  18  ar  
 24  17  42  ar  
 25  18  19  1   
 26  18  20  ar  
 27  20  21  1   
 28  20  22  ar  
 29  22  23  1   
 30  22  40  ar  
 31  23  28  am  
 32  23  38  2   
 33  24  28  1   
 34  24  30  1   
 35  24  34  2   
 36  25  26  1   
 37  27  44  1   
 38  28  29  1   
 39  30  31  2   
 40  31  32  1   
 41  32  33  1   
 42  32  34  1   
 43  35  39  2   
 44  36  39  2   
 45  40  41  1   
 46  40  42  ar  
 47  42  43  1   
 48  44  45  ar  
 49  44  69  ar  
 50  45  46  1   
 51  45  47  ar  
 52  47  48  1   
 53  47  49  ar  
 54  49  50  1   
 55  49  67  ar  
 56  50  51  1   
 57  50  52  1   
 58  50  64  1   
 59  52  53  1   
 60  52  54  1   
 61  52  55  1   
 62  55  56  1   
 63  55  57  1   
 64  55  58  1   
 65  58  59  1   
 66  58  60  1   
 67  58  61  1   
 68  61  62  1   
 69  61  63  1   
 70  61  64  1   
 71  64  65  1   
 72  64  66  1   
 73  67  68  1   
 74  67  69  ar  
 75  69  70  1   
 76  71  72  1   
@<TRIPOS>SUBSTRUCTURE
  1 Q97V  13 GROUP 4 L **** 0

# MOE 2019.01 (io_trps.svl 2018.10)
