# created with PyMOL 2.3.5
@<TRIPOS>MOLECULE
97V
72 76 1 0 0
SMALL
USER_CHARGES


@<TRIPOS>ATOM
      1 CAA         7.6310    2.1260    0.3800 C.3       1 97V1        0.0000
      2 CAE         5.9250    0.0500   -0.4980 C.2       1 97V1        0.0000
      3 CAF         5.8170   -0.0150   -1.8750 C.2       1 97V1        0.0000
      4 CAG         4.5840   -0.2270   -2.4660 C.2       1 97V1        0.0000
      5 CAH         3.4570   -0.3740   -1.6810 C.2       1 97V1        0.0000
      6 CAI         3.5630   -0.3100   -0.2980 C.2       1 97V1        0.0000
      7 CAK         1.4240   -1.2730    0.1030 C.2       1 97V1        0.0000
      8 CAN         0.0840   -0.4440    1.9610 C.3       1 97V1        0.0000
      9 CAO        -0.5750    0.8290    1.4960 C.2       1 97V1        0.0000
     10 CAP         0.2030    1.8970    1.0860 C.2       1 97V1        0.0000
     11 CAQ        -0.3930    3.0650    0.6590 C.2       1 97V1        0.0000
     12 CAR        -1.7850    3.1680    0.6420 C.2       1 97V1        0.0000
     13 CAS        -2.4310    4.4170    0.1850 C.2       1 97V1        0.0000
     14 CAV        -4.3820    5.6860   -0.2590 C.2       1 97V1        0.0000
     15 NAJ         2.4230   -0.4590    0.5000 N.pl3     1 97V1        0.0000
     16 NAM         0.2830   -1.3370    0.8170 N.pl3     1 97V1        0.0000
     17 NAU        -3.7750    4.5140    0.1700 N.pl3     1 97V1        0.0000
     18 NAW        -3.7540    6.8050   -0.6870 N.pl3     1 97V1        0.0000
     19 NAX        -4.7840    7.7060   -1.0080 N.2       1 97V1        0.0000
     20 NAY        -5.8970    7.1020   -0.7650 N.2       1 97V1        0.0000
     21 NAZ        -5.6740    5.9150   -0.3310 N.2       1 97V1        0.0000
     22 OAC         8.4280   -0.1800   -0.7010 O.2       1 97V1        0.0000
     23 OAD         7.3780   -0.2650    1.5380 O.2       1 97V1        0.0000
     24 OAL         1.5540   -1.9500   -0.8990 O.2       1 97V1        0.0000
     25 OAT        -1.7500    5.3560   -0.1770 O.2       1 97V1        0.0000
     26 SAB         7.4970    0.3220    0.2490 S.O2      1 97V1        0.0000
     27 CBA        -2.5650    2.0870    1.0570 C.2       1 97V1        0.0000
     28 CBB        -1.9550    0.9230    1.4770 C.2       1 97V1        0.0000
     29 CBC        -0.7120   -2.2560    0.4650 C.2       1 97V1        0.0000
     30 CBD        -1.0070   -3.3190    1.3090 C.2       1 97V1        0.0000
     31 CBE        -1.9890   -4.2250    0.9590 C.2       1 97V1        0.0000
     32 CBF        -2.6780   -4.0740   -0.2300 C.2       1 97V1        0.0000
     33 CBG        -3.7450   -5.0680   -0.6120 C.3       1 97V1        0.0000
     34 CBH        -3.1300   -6.4650   -0.7090 C.3       1 97V1        0.0000
     35 CBI        -4.2130   -7.4740   -1.0970 C.3       1 97V1        0.0000
     36 CBJ        -5.3140   -7.4740   -0.0340 C.3       1 97V1        0.0000
     37 CBK        -5.9290   -6.0760    0.0630 C.3       1 97V1        0.0000
     38 CBL        -4.8460   -5.0680    0.4500 C.3       1 97V1        0.0000
     39 CBM        -2.3860   -3.0170   -1.0730 C.2       1 97V1        0.0000
     40 CBN        -1.4100   -2.1050   -0.7260 C.2       1 97V1        0.0000
     41 CBO         4.8010   -0.0910    0.2920 C.2       1 97V1        0.0000
     42 H1          6.8170    2.5070    0.9970 H         1 97V1        0.0000
     43 H2          8.5850    2.3870    0.8370 H         1 97V1        0.0000
     44 H3          7.5710    2.5680   -0.6140 H         1 97V1        0.0000
     45 H4          6.6960    0.1010   -2.4910 H         1 97V1        0.0000
     46 H5          4.5030   -0.2770   -3.5420 H         1 97V1        0.0000
     47 H6          2.4950   -0.5390   -2.1430 H         1 97V1        0.0000
     48 H7          1.0480   -0.2110    2.4120 H         1 97V1        0.0000
     49 H8         -0.5530   -0.9340    2.6980 H         1 97V1        0.0000
     50 H9          1.2800    1.8150    1.0990 H         1 97V1        0.0000
     51 H10         0.2150    3.8980    0.3390 H         1 97V1        0.0000
     52 H11         2.3510    0.0230    1.3380 H         1 97V1        0.0000
     53 H12        -4.3190    3.7640    0.4580 H         1 97V1        0.0000
     54 H13        -2.7980    6.9540   -0.7570 H         1 97V1        0.0000
     55 H14        -3.6420    2.1610    1.0470 H         1 97V1        0.0000
     56 H15        -2.5570    0.0840    1.7940 H         1 97V1        0.0000
     57 H16        -0.4690   -3.4380    2.2380 H         1 97V1        0.0000
     58 H17        -2.2190   -5.0510    1.6150 H         1 97V1        0.0000
     59 H18        -4.1710   -4.7910   -1.5770 H         1 97V1        0.0000
     60 H19        -2.3450   -6.4650   -1.4660 H         1 97V1        0.0000
     61 H20        -2.7040   -6.7420    0.2550 H         1 97V1        0.0000
     62 H21        -4.6390   -7.1970   -2.0610 H         1 97V1        0.0000
     63 H22        -3.7740   -8.4690   -1.1650 H         1 97V1        0.0000
     64 H23        -6.0850   -8.1920   -0.3100 H         1 97V1        0.0000
     65 H24        -4.8880   -7.7510    0.9300 H         1 97V1        0.0000
     66 H25        -6.3550   -5.7990   -0.9010 H         1 97V1        0.0000
     67 H26        -6.7130   -6.0760    0.8200 H         1 97V1        0.0000
     68 H27        -4.4200   -5.3450    1.4150 H         1 97V1        0.0000
     69 H28        -5.2840   -4.0720    0.5190 H         1 97V1        0.0000
     70 H29        -2.9260   -2.9020   -2.0010 H         1 97V1        0.0000
     71 H30        -1.1820   -1.2790   -1.3840 H         1 97V1        0.0000
     72 H31         4.8860   -0.0410    1.3670 H         1 97V1        0.0000
@<TRIPOS>BOND
     1   36   37 1
     2   35   36 1
     3   37   38 1
     4   34   35 1
     5   33   38 1
     6   33   34 1
     7   32   33 1
     8   32   39 2
     9   31   32 1
    10   39   40 1
    11   30   31 2
    12   29   40 2
    13   29   30 1
    14   16   29 1
    15    4    5 2
    16    5    6 1
    17    6   15 1
    18    7   15 1
    19    7   16 1
    20    8   16 1
    21    3    4 1
    22    6   41 2
    23    7   24 2
    24    8    9 1
    25    9   10 2
    26   10   11 1
    27    2    3 2
    28    9   28 1
    29   11   12 2
    30    2   41 1
    31    2   26 1
    32   27   28 2
    33   12   27 1
    34   12   13 1
    35   13   17 1
    36   14   17 1
    37   14   21 2
    38   20   21 1
    39   13   25 2
    40    1   26 1
    41   22   26 2
    42   23   26 2
    43   14   18 1
    44   19   20 2
    45   18   19 1
    46    1   42 1
    47    1   43 1
    48    1   44 1
    49    3   45 1
    50    4   46 1
    51    5   47 1
    52    8   48 1
    53    8   49 1
    54   10   50 1
    55   11   51 1
    56   15   52 1
    57   17   53 1
    58   18   54 1
    59   27   55 1
    60   28   56 1
    61   30   57 1
    62   31   58 1
    63   33   59 1
    64   34   60 1
    65   34   61 1
    66   35   62 1
    67   35   63 1
    68   36   64 1
    69   36   65 1
    70   37   66 1
    71   37   67 1
    72   38   68 1
    73   38   69 1
    74   39   70 1
    75   40   71 1
    76   41   72 1
@<TRIPOS>SUBSTRUCTURE
     1 97V1        1 RESIDUE           4 A     97V     0 ROOT
