@<TRIPOS>MOLECULE
G3C
21 22 1 0 0
SMALL
NO_CHARGES


@<TRIPOS>ATOM
      1 C10       102.6820  109.9210  142.7990 C.ar      1 G3C451      0.0000
      2 C13       102.9780  112.2960  142.6080 C.ar      1 G3C451      0.0000
      3 C15       103.1420  111.9130  138.4880 C.3       1 G3C451      0.0000
      4 C17       104.0000  111.5090  136.2460 C.3       1 G3C451      0.0000
      5 C20       107.1340  110.2190  137.5460 C.ar      1 G3C451      0.0000
      6 C02       107.9980  110.3060  138.6360 C.ar      1 G3C451      0.0000
      7 C03       107.4870  110.5220  139.9230 C.ar      1 G3C451      0.0000
      8 C05       106.1120  110.6490  140.1230 C.ar      1 G3C451      0.0000
      9 C06       105.2390  110.5630  139.0130 C.ar      1 G3C451      0.0000
     10 C07       103.7080  110.7040  139.2250 C.3       1 G3C451      0.0000
     11 C08       103.3450  110.8850  140.7010 C.ar      1 G3C451      0.0000
     12 C09       103.0200  109.7740  141.4620 C.ar      1 G3C451      0.0000
     13 C11       102.6600  111.1830  143.3700 C.ar      1 G3C451      0.0000
     14 C14       103.3160  112.1490  141.2720 C.ar      1 G3C451      0.0000
     15 C18       104.8110  110.2460  136.5200 C.3       1 G3C451      0.0000
     16 C19       105.7420  110.3530  137.7520 C.ar      1 G3C451      0.0000
     17 N16       102.8400  111.6610  137.0970 N.4       1 G3C451      0.0000
     18 O01       109.3780  110.1780  138.4430 O.3       1 G3C451      0.0000
     19 O04       108.3610  110.6090  141.0130 O.3       1 G3C451      0.0000
     20 O12       102.3170  111.3340  144.7210 O.3       1 G3C451      0.0000
     21 CL2       107.7740  109.9440  135.9030 C         1 G3C451      0.0000
@<TRIPOS>BOND
     1    1   12 ar
     2    1   13 ar
     3    2   13 ar
     4    2   14 ar
     5    3   10 1
     6    3   17 1
     7    4   15 1
     8    4   17 1
     9    5    6 ar
    10    5   16 ar
    11    6    7 ar
    12    6   18 1
    13    7    8 ar
    14    7   19 1
    15    8    9 ar
    16    9   10 1
    17    9   16 ar
    18   10   11 1
    19   11   12 ar
    20   11   14 ar
    21   13   20 1
    22   15   16 1
@<TRIPOS>SUBSTRUCTURE
     1 G3C451      1 RESIDUE           4 R     G3C     0 ROOT
