@<TRIPOS>MOLECULE
HCY
26 29 1 0 0
SMALL
NO_CHARGES


@<TRIPOS>ATOM
      1 C1         91.4600  125.2340  112.2780 C.3       1 HCY633      0.0000
      2 C2         92.1290  126.3940  113.0040 C.3       1 HCY633      0.0000
      3 C3         91.1180  127.4840  113.2290 C.2       1 HCY633      0.0000
      4 C4         89.7760  127.1040  113.6850 C.2       1 HCY633      0.0000
      5 C5         89.4140  125.8180  113.6720 C.2       1 HCY633      0.0000
      6 C6         88.1870  125.3650  114.4120 C.3       1 HCY633      0.0000
      7 C7         87.2800  124.6070  113.4410 C.3       1 HCY633      0.0000
      8 C8         88.0440  123.6210  112.5640 C.3       1 HCY633      0.0000
      9 C9         89.2070  124.2900  111.8570 C.3       1 HCY633      0.0000
     10 C10        90.1640  124.7590  112.9250 C.3       1 HCY633      0.0000
     11 C12        89.0010  122.5190  109.9780 C.3       1 HCY633      0.0000
     12 C11        89.9140  123.4210  110.8130 C.3       1 HCY633      0.0000
     13 C13        87.9730  121.8860  110.8830 C.3       1 HCY633      0.0000
     14 C14        87.1810  123.0130  111.4850 C.3       1 HCY633      0.0000
     15 C15        85.8480  122.4230  111.9060 C.3       1 HCY633      0.0000
     16 C16        85.6250  121.2620  110.9410 C.3       1 HCY633      0.0000
     17 C17        86.9450  120.9850  110.2360 C.3       1 HCY633      0.0000
     18 C18        88.6980  121.1230  111.9740 C.3       1 HCY633      0.0000
     19 C19        90.3870  123.6350  113.9190 C.3       1 HCY633      0.0000
     20 C20        87.2860  119.5410  110.4070 C.2       1 HCY633      0.0000
     21 C21        87.9240  118.7790  109.2770 C.3       1 HCY633      0.0000
     22 O1         91.4060  128.6530  113.0400 O.2       1 HCY633      0.0000
     23 O2         90.8910  122.6180  111.4700 O.3       1 HCY633      0.0000
     24 O3         86.8290  121.2860  108.8470 O.3       1 HCY633      0.0000
     25 O4         87.0450  119.0000  111.4660 O.2       1 HCY633      0.0000
     26 O5         87.1110  117.6570  108.9230 O.3       1 HCY633      0.0000
@<TRIPOS>BOND
     1    1    2 1
     2    1   10 1
     3    2    3 1
     4    3    4 2
     5    3   22 2
     6    4    5 2
     7    5    6 1
     8    5   10 1
     9    6    7 1
    10    7    8 1
    11    8    9 1
    12    8   14 1
    13    9   10 1
    14    9   12 1
    15   10   19 1
    16   11   12 1
    17   11   13 1
    18   12   23 1
    19   13   14 1
    20   13   17 1
    21   13   18 1
    22   14   15 1
    23   15   16 1
    24   16   17 1
    25   17   20 1
    26   17   24 1
    27   20   21 1
    28   20   25 2
    29   21   26 1
@<TRIPOS>SUBSTRUCTURE
     1 HCY633      1 RESIDUE           4 R     HCY     0 ROOT
